 Abaqus/Standard 2022                  DATE 12-7ÔÂ-2024 TIME 09:39:40
 SUMMARY OF JOB INFORMATION:
 STEP  INC ATT SEVERE EQUIL TOTAL  TOTAL      STEP       INC OF       DOF    IF
               DISCON ITERS ITERS  TIME/    TIME/LPF    TIME/LPF    MONITOR RIKS
               ITERS               FREQ
   1     1   1     6     1     7  0.100      0.100      0.1000    
   1     2   1     0     1     1  0.200      0.200      0.1000    
   1     3   1     0     1     1  0.350      0.350      0.1500    
   1     4   1     0     1     1  0.575      0.575      0.2250    
   1     5   1     0     1     1  0.913      0.913      0.3375    
   1     6   1     0     1     1  1.00       1.00       0.08750   
   2     1   1     0     3     3  1.10       0.100      0.1000    
   2     2   1     0     1     1  1.20       0.200      0.1000    
   2     3   1     0     2     2  1.35       0.350      0.1500    
   2     4   1     0     2     2  1.58       0.575      0.2250    
   2     5   1     0     2     2  1.91       0.913      0.3375    
   2     6   1     0     2     2  2.00       1.00       0.08750   
   3     1   1     0     1     1  2.10       0.100      0.1000    
   3     2   1     0     1     1  2.20       0.200      0.1000    
   3     3   1     0     1     1  2.35       0.350      0.1500    
   3     4   1     0     1     1  2.58       0.575      0.2250    
   3     5   1     0     1     1  2.91       0.913      0.3375    
   3     6   1     0     1     1  3.00       1.00       0.08750   
   4     1   1     7     1     8  3.10       0.100      0.1000    
   4     2   1     3     1     4  3.20       0.200      0.1000    
   4     3   1     4     1     5  3.35       0.350      0.1500    
   4     4   1     4     1     5  3.58       0.575      0.2250    
   4     5   1     4     1     5  3.91       0.913      0.3375    
   4     6   1     3     0     3  4.00       1.00       0.08750   
                          
 THE ANALYSIS HAS COMPLETED SUCCESSFULLY
