*Heading
** Job name: S2-1-250-8-64-5 Model name: S2-1-250-8-64-5
** Generated by: Abaqus/CAE 2022
*Preprint, echo=NO, model=NO, history=NO, contact=NO
**
** PARTS
**
*Part, name=T-beam
*Node
      1,          -8.,           0.,           0.
      2,  -4.33333349,           0.,           0.
      3, -0.666666687,           0.,           0.
      4,           3.,           0.,           0.
      5,   6.66666651,           0.,           0.
      6,    10.333333,           0.,           0.
      7,          14.,           0.,           0.
*Element, type=B31
1, 1, 2
2, 2, 3
3, 3, 4
4, 4, 5
5, 5, 6
6, 6, 7
*Nset, nset=_PickedSet2, internal, generate
 1,  7,  1
*Elset, elset=_PickedSet2, internal, generate
 1,  6,  1
** Section: CrMoA  Profile: M20
*Beam Section, elset=_PickedSet2, material=CrMoA, poisson = 0.3, temperature=GRADIENTS, section=CIRC
11.
0.,0.,-1.
*End Part
**  
*Part, name=plane
*Node
      1,         125.,        -136.,           0.
      2,         125.,        -141.,           0.
      3,         141.,        -125.,           0.
      4,         136.,        -125.,           0.
      5,         136.,         125.,           0.
      6,         141.,         125.,           0.
      7,         125.,         141.,           0.
      8,         125.,         136.,           0.
      9,         141.,           0.,           0.
     10,         136.,           0.,           0.
     11,         125.,         -11.,           0.
     12,         125.,         -16.,           0.
     13,         125.,        -109.,           0.
     14,         125.,        -114.,           0.
     15,           0.,        -136.,           0.
     16,           0.,        -141.,           0.
     17,          16.,        -125.,           0.
     18,          11.,        -125.,           0.
     19,         114.,        -125.,           0.
     20,         109.,        -125.,           0.
** ... 1689 like lines cut
*Element, type=S4R
1,  1,  2, 82, 83
2, 83, 82,  3,  4
3,  5,  6, 84, 85
4, 85, 84,  7,  8
5,  9, 10, 86, 87
6, 87, 86, 11, 12
7,  4,  3, 88, 89
8, 89, 88, 13, 14
 9, 15, 16, 90, 91
10, 91, 90, 17, 18
11,  2,  1, 92, 93
12, 93, 92, 19, 20
 13, 129, 497, 510, 128
 14, 497, 498, 511, 510
 15, 498, 499, 512, 511
 16, 499, 500, 513, 512
 17, 500, 496, 501, 513
 18, 128, 510, 514, 127
 19, 510, 511, 515, 514
 20, 511, 512, 516, 515
** ... 1586 like lines cut
*Nset, nset=_PickedSet2, internal, generate
    1,  1709,     1
*Elset, elset=_PickedSet2, internal, generate
    1,  1606,     1
** Section: Rigid
*Shell Section, elset=_PickedSet2, material=Rigid, offset=SPOS
250., 5
*End Part
**  
*Part, name=plate
*Node
      1,         -52.,           0.,          22.
      2,         -52.,         -52.,          22.
      3,           0.,         -52.,          22.
      4,           0.,           0.,          22.
      5,           0.,          52.,          22.
      6,         -52.,          52.,          22.
      7,         -60.,          60.,          22.
      8,        -125.,          60.,          22.
      9,        -125.,          16.,          22.
     10,        -109.,           0.,          22.
     11,         -60.,           0.,          22.
     12,        -125.,         -16.,          22.
     13,        -125.,         -60.,          22.
     14,         -60.,         -60.,          22.
     15,           0.,         -60.,          22.
     16,          52.,           0.,          22.
     17,          52.,         -52.,          22.
     18,          52.,          52.,          22.
     19,           0.,          60.,          22.
     20,           0.,         109.,          22.
** ... 21165 like lines cut
*Element, type=C3D8R
    1,   145,  1130,   114,     1,  4382,  5367,  4351,  4238
    2,  1130,  1131,   115,   114,  5367,  5368,  4352,  4351
    3,  1131,  1132,   116,   115,  5368,  5369,  4353,  4352
    4,  1132,  1133,   117,   116,  5369,  5370,  4354,  4353
    5,  1133,  1134,   118,   117,  5370,  5371,  4355,  4354
    6,  1134,  1135,   119,   118,  5371,  5372,  4356,  4355
    7,  1135,  1136,   120,   119,  5372,  5373,  4357,  4356
    8,  1136,  1137,   121,   120,  5373,  5374,  4358,  4357
    9,  1137,   122,     2,   121,  5374,  4359,  4239,  4358
   10,   144,  1138,  1130,   145,  4381,  5375,  5367,  4382
   11,  1138,  1139,  1131,  1130,  5375,  5376,  5368,  5367
   12,  1139,  1140,  1132,  1131,  5376,  5377,  5369,  5368
   13,  1140,  1141,  1133,  1132,  5377,  5378,  5370,  5369
   14,  1141,  1142,  1134,  1133,  5378,  5379,  5371,  5370
   15,  1142,  1143,  1135,  1134,  5379,  5380,  5372,  5371
   16,  1143,  1144,  1136,  1135,  5380,  5381,  5373,  5372
   17,  1144,  1145,  1137,  1136,  5381,  5382,  5374,  5373
   18,  1145,   123,   122,  1137,  5382,  4360,  4359,  5374
   19,   143,  1146,  1138,   144,  4380,  5383,  5375,  4381
   20,  1146,  1147,  1139,  1138,  5383,  5384,  5376,  5375
** ... 16188 like lines cut
*Nset, nset=_PickedSet2, internal, generate
     1,  21185,      1
*Elset, elset=_PickedSet2, internal, generate
     1,  16208,      1
** Section: Q355
*Solid Section, elset=_PickedSet2, material=Q355
,
*End Part
**  
**
** ASSEMBLY
**
*Assembly, name=Assembly
**  
*Instance, name=plane-1, part=plane
*End Instance
**  
*Instance, name=plate-1, part=plate
*End Instance
**  
*Instance, name=T-beam-1, part=T-beam
       -125.,         125.,          14.
       -125.,         125.,          14.,        -125., 126.000000012688,          14., 89.9999992730282
*Elset, elset=_boltload1_blel_, internal
 1,
*End Instance
**  
*Instance, name=T-beam-1-lin-1-2, part=T-beam
       -125.,           0.,          14.
       -125.,           0.,          14.,        -125., 1.00000001268805,          14., 89.9999992730282
*Elset, elset=_boltload4_blel_, internal
 1,
*End Instance
**  
*Instance, name=T-beam-1-lin-1-3, part=T-beam
       -125.,        -125.,          14.
       -125.,        -125.,          14.,        -125., -123.999999987312,          14., 89.9999992730282
*Elset, elset=_boltload6_blel_, internal
 1,
*End Instance
**  
*Instance, name=T-beam-1-lin-2-1, part=T-beam
          0.,         125.,          14.
          0.,         125.,          14.,           0., 126.000000012688,          14., 89.9999992730282
*Elset, elset=_boltload2_blel_, internal
 1,
*End Instance
**  
*Instance, name=T-beam-1-lin-2-3, part=T-beam
          0.,        -125.,          14.
          0.,        -125.,          14.,           0., -123.999999987312,          14., 89.9999992730282
*Elset, elset=_boltload7_blel_, internal
 1,
*End Instance
**  
*Instance, name=T-beam-1-lin-3-1, part=T-beam
        125.,         125.,          14.
        125.,         125.,          14.,         125., 126.000000012688,          14., 89.9999992730282
*Elset, elset=_boltload3_blel_, internal
 1,
*End Instance
**  
*Instance, name=T-beam-1-lin-3-2, part=T-beam
        125.,           0.,          14.
        125.,           0.,          14.,         125., 1.00000001268805,          14., 89.9999992730282
*Elset, elset=_boltload5_blel_, internal
 1,
*End Instance
**  
*Instance, name=T-beam-1-lin-3-3, part=T-beam
        125.,        -125.,          14.
        125.,        -125.,          14.,         125., -123.999999987312,          14., 89.9999992730282
*Elset, elset=_boltload8_blel_, internal
 1,
*End Instance
**  
*Node
      1,           0.,           0.,          22.
*Nset, nset=_PickedSet72, internal, instance=plate-1
  23,  24,  37,  38,  39,  40,  41,  42, 343, 344, 345, 389, 390, 391, 392, 393
 394, 395, 396, 397, 398, 399, 400, 401, 402, 403, 404, 405, 406, 407, 408, 409
*Elset, elset=_PickedSet72, internal, instance=plate-1, generate
 894,  909,    1
*Nset, nset=_PickedSet73, internal, instance=T-beam-1
 1,
*Nset, nset=_PickedSet74, internal, instance=plate-1
  20,  21,  25,  26,  27,  28,  29,  30, 301, 302, 303, 356, 357, 358, 359, 360
 361, 362, 363, 364, 365, 366, 367, 368, 369, 370, 371, 372, 373, 374, 375, 376
*Elset, elset=_PickedSet74, internal, instance=plate-1, generate
 870,  885,    1
*Nset, nset=_PickedSet75, internal, instance=T-beam-1-lin-2-1
 1,
*Nset, nset=_PickedSet76, internal, instance=plate-1
   81,   82,   83,   84,   85,   86,  104,  105,  692,  693,  694,  695,  696,  697,  698,  699
  700,  701,  702,  703,  989,  990,  991,  992,  993,  994,  995,  996,  997,  998,  999, 1000
*Elset, elset=_PickedSet76, internal, instance=plate-1
 1925, 1926, 1927, 1928, 1929, 1930, 1931, 1932, 3361, 3362, 3363, 3364, 3365, 3366, 3367, 3368
*Nset, nset=_PickedSet77, internal, instance=T-beam-1-lin-3-1
 1,
*Nset, nset=_PickedSet78, internal, instance=plate-1
  73,  74,  75,  76,  77,  78, 101, 102, 642, 643, 644, 645, 646, 647, 648, 649
 650, 651, 652, 653, 937, 938, 939, 940, 941, 942, 943, 944, 945, 946, 947, 948
*Elset, elset=_PickedSet78, internal, instance=plate-1
 1777, 1778, 1779, 1780, 1781, 1782, 1783, 1784, 3088, 3089, 3090, 3091, 3092, 3093, 3094, 3095
*Nset, nset=_PickedSet79, internal, instance=T-beam-1-lin-3-2
 1,
*Nset, nset=_PickedSet80, internal, instance=plate-1
  64,  65,  66,  67,  68,  69,  98,  99, 592, 593, 594, 595, 596, 597, 598, 599
 600, 601, 602, 603, 886, 887, 888, 889, 890, 891, 892, 893, 894, 895, 896, 897
*Elset, elset=_PickedSet80, internal, instance=plate-1
 1629, 1630, 1631, 1632, 1633, 1634, 1635, 1636, 2815, 2816, 2817, 2818, 2819, 2820, 2821, 2822
*Nset, nset=_PickedSet81, internal, instance=T-beam-1-lin-3-3
 1,
*Nset, nset=_PickedSet82, internal, instance=plate-1
  31,  32,  33,  34,  35,  36,  62,  63, 377, 378, 379, 380, 381, 382, 383, 384
 385, 386, 387, 388, 580, 581, 582, 583, 584, 585, 586, 587, 588, 589, 590, 591
*Elset, elset=_PickedSet82, internal, instance=plate-1
  886,  887,  888,  889,  890,  891,  892,  893, 1621, 1622, 1623, 1624, 1625, 1626, 1627, 1628
*Nset, nset=_PickedSet83, internal, instance=T-beam-1-lin-2-3
 1,
*Nset, nset=_PickedSet84, internal, instance=plate-1
  48,  49,  50,  51,  52,  53,  59,  60, 428, 429, 430, 431, 432, 433, 434, 435
 436, 437, 438, 439, 529, 530, 531, 532, 533, 534, 535, 536, 537, 538, 539, 540
*Elset, elset=_PickedSet84, internal, instance=plate-1
  926,  927,  928,  929,  930,  931,  932,  933, 1348, 1349, 1350, 1351, 1352, 1353, 1354, 1355
*Nset, nset=_PickedSet85, internal, instance=T-beam-1-lin-1-3
 1,
*Nset, nset=_PickedSet86, internal, instance=plate-1
   9,  10,  12,  43,  44,  45,  46,  47, 190, 191, 192, 211, 212, 213, 410, 411
 412, 413, 414, 415, 416, 417, 418, 419, 420, 421, 422, 423, 424, 425, 426, 427
*Elset, elset=_PickedSet86, internal, instance=plate-1, generate
 910,  925,    1
*Nset, nset=_PickedSet87, internal, instance=T-beam-1-lin-1-2
 1,
*Nset, nset=_PickedSet88, internal, instance=plane-1
  28,  29,  30,  31,  64,  65,  66,  67, 136, 137, 290, 291, 292, 293, 461, 462
*Elset, elset=_PickedSet88, internal, instance=plane-1
  137,  138,  596,  597,  598,  599, 1286, 1287
*Nset, nset=_PickedSet89, internal, instance=T-beam-1
 7,
*Nset, nset=_PickedSet90, internal, instance=plane-1
  32,  33,  34,  35,  71,  72,  73,  74, 138, 139, 334, 335, 336, 337, 477, 478
*Elset, elset=_PickedSet90, internal, instance=plane-1
  139,  140,  722,  723,  724,  725, 1378, 1379
*Nset, nset=_PickedSet91, internal, instance=T-beam-1-lin-2-1
 7,
*Nset, nset=_PickedSet92, internal, instance=plane-1
   5,   6,   7,   8,  36,  37,  38,  39,  84,  85, 140, 141, 142, 143, 362, 363
 364, 365
*Elset, elset=_PickedSet92, internal, instance=plane-1
   3,   4, 141, 142, 143, 144, 816, 817, 818
*Nset, nset=_PickedSet93, internal, instance=T-beam-1-lin-3-1
 7,
*Nset, nset=_PickedSet94, internal, instance=plane-1
   9,  10,  11,  12,  43,  44,  45,  46,  86,  87, 184, 185, 186, 187, 380, 381
*Elset, elset=_PickedSet94, internal, instance=plane-1
   5,   6, 267, 268, 269, 270, 909, 910
*Nset, nset=_PickedSet95, internal, instance=T-beam-1-lin-3-2
 7,
*Nset, nset=_PickedSet96, internal, instance=plane-1
   1,   2,   3,   4,  13,  14,  19,  20,  82,  83,  88,  89,  92,  93, 214, 215
*Elset, elset=_PickedSet96, internal, instance=plane-1
   1,   2,   7,   8,  11,  12, 372, 373
*Nset, nset=_PickedSet97, internal, instance=T-beam-1-lin-3-3
 7,
*Nset, nset=_PickedSet98, internal, instance=plane-1
  15,  16,  17,  18,  48,  49,  50,  51,  90,  91, 216, 217, 218, 219, 397, 398
*Elset, elset=_PickedSet98, internal, instance=plane-1
   9,  10, 374, 375, 376, 377, 986, 987
*Nset, nset=_PickedSet99, internal, instance=T-beam-1-lin-2-3
 7,
*Nset, nset=_PickedSet100, internal, instance=plane-1
  24,  25,  26,  27,  53,  54,  55,  56, 134, 135, 244, 245, 246, 247, 413, 414
*Elset, elset=_PickedSet100, internal, instance=plane-1
  135,  136,  468,  469,  470,  471, 1078, 1079
*Nset, nset=_PickedSet101, internal, instance=T-beam-1-lin-1-3
 7,
*Nset, nset=_PickedSet102, internal, instance=plane-1
  60,  61,  62,  63,  78,  79,  80,  81, 288, 289, 441, 442, 443, 444, 494, 495
*Elset, elset=_PickedSet102, internal, instance=plane-1
  594,  595, 1181, 1182, 1183, 1184, 1530, 1531
*Nset, nset=_PickedSet103, internal, instance=T-beam-1-lin-1-2
 7,
*Nset, nset=_PickedSet106, internal
 1,
*Nset, nset=_PickedSet107, internal
 1,
*Nset, nset=_PickedSet108, internal
 1,
*Nset, nset=_PickedSet109, internal, instance=plane-1, generate
    1,  1709,     1
*Elset, elset=_PickedSet109, internal, instance=plane-1, generate
    1,  1606,     1
*Elset, elset=_CP-1-plane-1_SPOS, internal, instance=plane-1, generate
    1,  1606,     1
*Surface, type=ELEMENT, name=CP-1-plane-1
_CP-1-plane-1_SPOS, SPOS
*Elset, elset=_CP-2-plane-1_SPOS, internal, instance=plane-1, generate
    1,  1606,     1
*Surface, type=ELEMENT, name=CP-2-plane-1
_CP-2-plane-1_SPOS, SPOS
*Elset, elset=_CP-2-plate-1_S2, internal, instance=plate-1, generate
 12157,  16208,      1
*Surface, type=ELEMENT, name=CP-2-plate-1
_CP-2-plate-1_S2, S2
*Elset, elset=__PickedSurf61_END1, internal, instance=T-beam-1
 1,
*Surface, type=ELEMENT, name=_PickedSurf61, internal
__PickedSurf61_END1, END1
*Elset, elset=__PickedSurf62_END1, internal, instance=T-beam-1-lin-2-1
 1,
*Surface, type=ELEMENT, name=_PickedSurf62, internal
__PickedSurf62_END1, END1
*Elset, elset=__PickedSurf63_END1, internal, instance=T-beam-1-lin-3-1
 1,
*Surface, type=ELEMENT, name=_PickedSurf63, internal
__PickedSurf63_END1, END1
*Elset, elset=__PickedSurf64_END1, internal, instance=T-beam-1-lin-1-2
 1,
*Surface, type=ELEMENT, name=_PickedSurf64, internal
__PickedSurf64_END1, END1
*Elset, elset=__PickedSurf65_END1, internal, instance=T-beam-1-lin-3-2
 1,
*Surface, type=ELEMENT, name=_PickedSurf65, internal
__PickedSurf65_END1, END1
*Elset, elset=__PickedSurf66_END1, internal, instance=T-beam-1-lin-1-3
 1,
*Surface, type=ELEMENT, name=_PickedSurf66, internal
__PickedSurf66_END1, END1
*Elset, elset=__PickedSurf67_END1, internal, instance=T-beam-1-lin-2-3
 1,
*Surface, type=ELEMENT, name=_PickedSurf67, internal
__PickedSurf67_END1, END1
*Elset, elset=__PickedSurf68_END1, internal, instance=T-beam-1-lin-3-3
 1,
*Surface, type=ELEMENT, name=_PickedSurf68, internal
__PickedSurf68_END1, END1
*Elset, elset=__PickedSurf105_S1, internal, instance=plate-1
  405,  406,  407,  408,  409,  410,  411,  412,  413,  414,  415,  416,  417,  418,  419,  420
  421,  422,  423,  586,  587,  588,  589,  590,  591,  592,  593,  594,  595,  596,  597,  598
  599,  600,  601,  602,  603,  604, 1758, 1759, 1760, 1761, 1762, 1763, 1764, 1765, 1766, 1767
 1768, 1769, 1770, 1771, 1772, 1773, 1774, 1775, 1776, 1785, 1786, 1787, 1788, 1789, 1790, 1791
 1792, 1793, 1794, 1795, 1796, 1797, 1798, 1799, 1800, 1801, 1802, 1803
*Surface, type=ELEMENT, name=_PickedSurf105, internal
__PickedSurf105_S1, S1
*Surface, type=NODE, name=_PickedSet72_CNS_, internal
_PickedSet72, 1.
*Surface, type=NODE, name=_PickedSet74_CNS_, internal
_PickedSet74, 1.
*Surface, type=NODE, name=_PickedSet76_CNS_, internal
_PickedSet76, 1.
*Surface, type=NODE, name=_PickedSet78_CNS_, internal
_PickedSet78, 1.
*Surface, type=NODE, name=_PickedSet80_CNS_, internal
_PickedSet80, 1.
*Surface, type=NODE, name=_PickedSet82_CNS_, internal
_PickedSet82, 1.
*Surface, type=NODE, name=_PickedSet84_CNS_, internal
_PickedSet84, 1.
*Surface, type=NODE, name=_PickedSet86_CNS_, internal
_PickedSet86, 1.
*Surface, type=NODE, name=_PickedSet88_CNS_, internal
_PickedSet88, 1.
*Surface, type=NODE, name=_PickedSet90_CNS_, internal
_PickedSet90, 1.
*Surface, type=NODE, name=_PickedSet92_CNS_, internal
_PickedSet92, 1.
*Surface, type=NODE, name=_PickedSet94_CNS_, internal
_PickedSet94, 1.
*Surface, type=NODE, name=_PickedSet96_CNS_, internal
_PickedSet96, 1.
*Surface, type=NODE, name=_PickedSet98_CNS_, internal
_PickedSet98, 1.
*Surface, type=NODE, name=_PickedSet100_CNS_, internal
_PickedSet100, 1.
*Surface, type=NODE, name=_PickedSet102_CNS_, internal
_PickedSet102, 1.
** Constraint: Constraint-1
*MPC
BEAM, _PickedSet72, _PickedSet73
** Constraint: Constraint-2
*MPC
BEAM, _PickedSet74, _PickedSet75
** Constraint: Constraint-3
*MPC
BEAM, _PickedSet76, _PickedSet77
** Constraint: Constraint-4
*MPC
BEAM, _PickedSet78, _PickedSet79
** Constraint: Constraint-5
*MPC
BEAM, _PickedSet80, _PickedSet81
** Constraint: Constraint-6
*MPC
BEAM, _PickedSet82, _PickedSet83
** Constraint: Constraint-7
*MPC
BEAM, _PickedSet84, _PickedSet85
** Constraint: Constraint-8
*MPC
BEAM, _PickedSet86, _PickedSet87
** Constraint: Constraint-9
*MPC
BEAM, _PickedSet88, _PickedSet89
** Constraint: Constraint-10
*MPC
BEAM, _PickedSet90, _PickedSet91
** Constraint: Constraint-11
*MPC
BEAM, _PickedSet92, _PickedSet93
** Constraint: Constraint-12
*MPC
BEAM, _PickedSet94, _PickedSet95
** Constraint: Constraint-13
*MPC
BEAM, _PickedSet96, _PickedSet97
** Constraint: Constraint-14
*MPC
BEAM, _PickedSet98, _PickedSet99
** Constraint: Constraint-15
*MPC
BEAM, _PickedSet100, _PickedSet101
** Constraint: Constraint-16
*MPC
BEAM, _PickedSet102, _PickedSet103
** Constraint: Constraint-17
*Coupling, constraint name=Constraint-17, ref node=_PickedSet106, surface=_PickedSurf105
*Distributing, weighting method=UNIFORM, coupling=STRUCTURAL
*Node
      2,           0.,           0.,           0.
*Nset, nset=_boltload1_blrn_, internal
2, 
** Pre-Tension Section for Bolt Load: boltload1
*Pre-tension Section, element= T-beam-1._boltload1_blel_, node=_boltload1_blrn_
 6.12323e-17,           0.,          -1.
*Node
      3,           0.,           0.,           0.
*Nset, nset=_boltload2_blrn_, internal
3, 
** Pre-Tension Section for Bolt Load: boltload2
*Pre-tension Section, element= T-beam-1-lin-2-1._boltload2_blel_, node=_boltload2_blrn_
 6.12323e-17,           0.,          -1.
*Node
      4,           0.,           0.,           0.
*Nset, nset=_boltload3_blrn_, internal
4, 
** Pre-Tension Section for Bolt Load: boltload3
*Pre-tension Section, element= T-beam-1-lin-3-1._boltload3_blel_, node=_boltload3_blrn_
 6.12323e-17,           0.,          -1.
*Node
      5,           0.,           0.,           0.
*Nset, nset=_boltload4_blrn_, internal
5, 
** Pre-Tension Section for Bolt Load: boltload4
*Pre-tension Section, element= T-beam-1-lin-1-2._boltload4_blel_, node=_boltload4_blrn_
 6.12323e-17,           0.,          -1.
*Node
      6,           0.,           0.,           0.
*Nset, nset=_boltload5_blrn_, internal
6, 
** Pre-Tension Section for Bolt Load: boltload5
*Pre-tension Section, element= T-beam-1-lin-3-2._boltload5_blel_, node=_boltload5_blrn_
 6.12323e-17,           0.,          -1.
*Node
      7,           0.,           0.,           0.
*Nset, nset=_boltload6_blrn_, internal
7, 
** Pre-Tension Section for Bolt Load: boltload6
*Pre-tension Section, element= T-beam-1-lin-1-3._boltload6_blel_, node=_boltload6_blrn_
 6.12323e-17,           0.,          -1.
*Node
      8,           0.,           0.,           0.
*Nset, nset=_boltload7_blrn_, internal
8, 
** Pre-Tension Section for Bolt Load: boltload7
*Pre-tension Section, element= T-beam-1-lin-2-3._boltload7_blel_, node=_boltload7_blrn_
 6.12323e-17,           0.,          -1.
*Node
      9,           0.,           0.,           0.
*Nset, nset=_boltload8_blrn_, internal
9, 
** Pre-Tension Section for Bolt Load: boltload8
*Pre-tension Section, element= T-beam-1-lin-3-3._boltload8_blel_, node=_boltload8_blrn_
 6.12323e-17,           0.,          -1.
*End Assembly
** 
** MATERIALS
** 
*Material, name=CrMoA
*Density
 7.8e-09,
*Elastic
206000., 0.3
*Material, name=Q355
*Density
 7.8e-09,
*Elastic
206000., 0.3
*Material, name=Rigid
*Density
 7.8e-09,
*Elastic
 2.06e+08, 0.3
** 
** INTERACTION PROPERTIES
** 
*Surface Interaction, name=IntProp-1
1.,
*Friction, slip tolerance=0.005
 0.2,
*Surface Behavior, pressure-overclosure=HARD
** 
** BOUNDARY CONDITIONS
** 
** Name: BC-1 Type: Displacement/Rotation
*Boundary
_PickedSet109, 1, 1
_PickedSet109, 2, 2
_PickedSet109, 3, 3
_PickedSet109, 4, 4
_PickedSet109, 5, 5
_PickedSet109, 6, 6
** 
** INTERACTIONS
** 
** Interaction: CP-1-plane-1-plate-1
*Contact Pair, interaction=IntProp-1, type=SURFACE TO SURFACE
CP-2-plate-1, CP-2-plane-1
** ----------------------------------------------------------------
** 
** STEP: contact
** 
*Step, name=contact, nlgeom=NO, inc=10000
*Static
0.1, 1., 1e-05, 1.
** 
** LOADS
** 
** Name: boltload1   Type: Bolt load
*Cload
_boltload1_blrn_, 1, 80.
** Name: boltload2   Type: Bolt load
*Cload
_boltload2_blrn_, 1, 80.
** Name: boltload3   Type: Bolt load
*Cload
_boltload3_blrn_, 1, 80.
** Name: boltload4   Type: Bolt load
*Cload
_boltload4_blrn_, 1, 80.
** Name: boltload5   Type: Bolt load
*Cload
_boltload5_blrn_, 1, 80.
** Name: boltload6   Type: Bolt load
*Cload
_boltload6_blrn_, 1, 80.
** Name: boltload7   Type: Bolt load
*Cload
_boltload7_blrn_, 1, 80.
** Name: boltload8   Type: Bolt load
*Cload
_boltload8_blrn_, 1, 80.
** 
** OUTPUT REQUESTS
** 
*Restart, write, frequency=0
** 
** FIELD OUTPUT: F-Output-1
** 
*Output, field
*Node Output
U, 
*Element Output, directions=YES
E, PE, PEEQ, S, STATUS
** 
** HISTORY OUTPUT: H-Output-1
** 
*Output, history, variable=PRESELECT
*End Step
** ----------------------------------------------------------------
** 
** STEP: boltload
** 
*Step, name=boltload, nlgeom=NO, inc=10000
*Static
0.1, 1., 1e-05, 1.
** 
** BOUNDARY CONDITIONS
** 
** Name: BC-1 Type: Displacement/Rotation
*Boundary, op=NEW
_PickedSet109, 1, 1
_PickedSet109, 2, 2
_PickedSet109, 3, 3
_PickedSet109, 4, 4
_PickedSet109, 5, 5
_PickedSet109, 6, 6
** Name: boltload1 Type: Bolt load
*Boundary, op=NEW
** Name: boltload2 Type: Bolt load
*Boundary, op=NEW
** Name: boltload3 Type: Bolt load
*Boundary, op=NEW
** Name: boltload4 Type: Bolt load
*Boundary, op=NEW
** Name: boltload5 Type: Bolt load
*Boundary, op=NEW
** Name: boltload6 Type: Bolt load
*Boundary, op=NEW
** Name: boltload7 Type: Bolt load
*Boundary, op=NEW
** Name: boltload8 Type: Bolt load
*Boundary, op=NEW
** 
** LOADS
** 
** Name: boltload1   Type: Bolt load
*Cload, op=NEW
_boltload1_blrn_, 1, 104550.
** Name: boltload2   Type: Bolt load
*Cload, op=NEW
_boltload2_blrn_, 1, 104550.
** Name: boltload3   Type: Bolt load
*Cload, op=NEW
_boltload3_blrn_, 1, 104550.
** Name: boltload4   Type: Bolt load
*Cload, op=NEW
_boltload4_blrn_, 1, 104550.
** Name: boltload5   Type: Bolt load
*Cload, op=NEW
_boltload5_blrn_, 1, 104550.
** Name: boltload6   Type: Bolt load
*Cload, op=NEW
_boltload6_blrn_, 1, 104550.
** Name: boltload7   Type: Bolt load
*Cload, op=NEW
_boltload7_blrn_, 1, 104550.
** Name: boltload8   Type: Bolt load
*Cload, op=NEW
_boltload8_blrn_, 1, 104550.
** 
** OUTPUT REQUESTS
** 
*Restart, write, frequency=0
** 
** FIELD OUTPUT: F-Output-1
** 
*Output, field
*Node Output
U, 
*Element Output, directions=YES
E, PE, PEEQ, S, STATUS
** 
** HISTORY OUTPUT: H-Output-1
** 
*Output, history, variable=PRESELECT
*End Step
** ----------------------------------------------------------------
** 
** STEP: fix
** 
*Step, name=fix, nlgeom=NO, inc=10000
*Static
0.1, 1., 1e-05, 1.
** 
** BOUNDARY CONDITIONS
** 
** Name: BC-1 Type: Displacement/Rotation
*Boundary, op=NEW
_PickedSet109, 1, 1
_PickedSet109, 2, 2
_PickedSet109, 3, 3
_PickedSet109, 4, 4
_PickedSet109, 5, 5
_PickedSet109, 6, 6
** Name: boltload1 Type: Bolt load
*Boundary, op=NEW, fixed
_boltload1_blrn_, 1, 1
** Name: boltload2 Type: Bolt load
*Boundary, op=NEW, fixed
_boltload2_blrn_, 1, 1
** Name: boltload3 Type: Bolt load
*Boundary, op=NEW, fixed
_boltload3_blrn_, 1, 1
** Name: boltload4 Type: Bolt load
*Boundary, op=NEW, fixed
_boltload4_blrn_, 1, 1
** Name: boltload5 Type: Bolt load
*Boundary, op=NEW, fixed
_boltload5_blrn_, 1, 1
** Name: boltload6 Type: Bolt load
*Boundary, op=NEW, fixed
_boltload6_blrn_, 1, 1
** Name: boltload7 Type: Bolt load
*Boundary, op=NEW, fixed
_boltload7_blrn_, 1, 1
** Name: boltload8 Type: Bolt load
*Boundary, op=NEW, fixed
_boltload8_blrn_, 1, 1
** 
** LOADS
** 
** Name: boltload1   Type: Bolt load
*Cload, op=NEW
** Name: boltload2   Type: Bolt load
*Cload, op=NEW
** Name: boltload3   Type: Bolt load
*Cload, op=NEW
** Name: boltload4   Type: Bolt load
*Cload, op=NEW
** Name: boltload5   Type: Bolt load
*Cload, op=NEW
** Name: boltload6   Type: Bolt load
*Cload, op=NEW
** Name: boltload7   Type: Bolt load
*Cload, op=NEW
** Name: boltload8   Type: Bolt load
*Cload, op=NEW
** 
** OUTPUT REQUESTS
** 
*Restart, write, frequency=0
** 
** FIELD OUTPUT: F-Output-1
** 
*Output, field
*Node Output
U, 
*Element Output, directions=YES
E, PE, PEEQ, S, STATUS
** 
** HISTORY OUTPUT: H-Output-1
** 
*Output, history, variable=PRESELECT
*End Step
** ----------------------------------------------------------------
** 
** STEP: load
** 
*Step, name=load, nlgeom=NO, inc=10000
*Static
0.1, 1., 1e-05, 1.
** 
** LOADS
** 
** Name: Load-1   Type: Concentrated force
*Cload
_PickedSet107, 1, 6609.
_PickedSet107, 2, 8366.
_PickedSet107, 3, 10932.
** Name: Load-2   Type: Moment
*Cload
_PickedSet108, 4, 1.7322e+07
_PickedSet108, 5, 1.1913e+07
_PickedSet108, 6, 1.945e+06
** 
** OUTPUT REQUESTS
** 
*Restart, write, frequency=0
** 
** FIELD OUTPUT: F-Output-1
** 
*Output, field
*Node Output
U, 
*Element Output, directions=YES
E, PE, PEEQ, S, STATUS
** 
** HISTORY OUTPUT: H-Output-1
** 
*Output, history, variable=PRESELECT
*End Step
