1

   Abaqus 2022                                  Date 12-7ÔÂ-2024   Time 09:39:27
   For use by Supplied by Team-SolidSQUAD under license from Dassault Systemes or its subsidiary.

                                                                                 
                                                                                 
 STEP    1     INCREMENT     1     STEP TIME    0.00    


                        S T E P       1     S T A T I C   A N A L Y S I S


                                                                                          

     AUTOMATIC TIME CONTROL WITH -
          A SUGGESTED INITIAL TIME INCREMENT OF                0.100    
          AND A TOTAL TIME PERIOD OF                            1.00    
          THE MINIMUM TIME INCREMENT ALLOWED IS                1.000E-05
          THE MAXIMUM TIME INCREMENT ALLOWED IS                 1.00    

     LINEAR EQUATION SOLVER TYPE         DIRECT SPARSE

 CONVERGENCE TOLERANCE PARAMETERS FOR FORCE    
     CRITERION FOR RESIDUAL FORCE     FOR A NONLINEAR PROBLEM          5.000E-03
     CRITERION FOR DISP.    CORRECTION IN A NONLINEAR PROBLEM          1.000E-02
     INITIAL VALUE OF TIME AVERAGE FORCE                               1.000E-02
     AVERAGE FORCE     IS TIME AVERAGE FORCE    
     ALTERNATE CRIT. FOR RESIDUAL FORCE     FOR A NONLINEAR PROBLEM    2.000E-02
     CRITERION FOR ZERO FORCE     RELATIVE TO TIME AVRG. FORCE         1.000E-05
     CRITERION FOR RESIDUAL FORCE     WHEN THERE IS ZERO FLUX          1.000E-05
     CRITERION FOR DISP.    CORRECTION WHEN THERE IS ZERO FLUX         1.000E-03
     CRITERION FOR RESIDUAL FORCE     FOR A LINEAR INCREMENT           1.000E-08
     FIELD CONVERSION RATIO                                             1.00    
     CRITERION FOR ZERO FORCE     REL. TO TIME AVRG. MAX. FORCE        1.000E-05
     CRITERION FOR ZERO DISP.    RELATIVE TO CHARACTERISTIC LENGTH     1.000E-08

 CONVERGENCE TOLERANCE PARAMETERS FOR MOMENT   
     CRITERION FOR RESIDUAL MOMENT    FOR A NONLINEAR PROBLEM          5.000E-03
     CRITERION FOR ROTATION CORRECTION IN A NONLINEAR PROBLEM          1.000E-02
     INITIAL VALUE OF TIME AVERAGE MOMENT                              1.000E-02
     AVERAGE MOMENT    IS TIME AVERAGE MOMENT   
     ALTERNATE CRIT. FOR RESIDUAL MOMENT    FOR A NONLINEAR PROBLEM    2.000E-02
     CRITERION FOR ZERO MOMENT    RELATIVE TO TIME AVRG. MOMENT        1.000E-05
     CRITERION FOR RESIDUAL MOMENT    WHEN THERE IS ZERO FLUX          1.000E-05
     CRITERION FOR ROTATION CORRECTION WHEN THERE IS ZERO FLUX         1.000E-03
     CRITERION FOR RESIDUAL MOMENT    FOR A LINEAR INCREMENT           1.000E-08
     FIELD CONVERSION RATIO                                             1.00    
     CRITERION FOR ZERO MOMENT    REL. TO TIME AVRG. MAX. MOMENT       1.000E-05

     VOLUMETRIC STRAIN COMPATIBILITY TOLERANCE FOR HYBRID SOLIDS       1.000E-05
     AXIAL STRAIN COMPATIBILITY TOLERANCE FOR HYBRID BEAMS             1.000E-05
     TRANS. SHEAR STRAIN COMPATIBILITY TOLERANCE FOR HYBRID BEAMS      1.000E-05
     SOFT CONTACT CONSTRAINT COMPATIBILITY TOLERANCE FOR P>P0          5.000E-03
     SOFT CONTACT CONSTRAINT COMPATIBILITY TOLERANCE FOR P=0.0         0.100    
     CONTACT FORCE ERROR TOLERANCE FOR CONVERT SDI=YES                 1.00    
     DISPLACEMENT COMPATIBILITY TOLERANCE FOR DCOUP ELEMENTS           1.000E-05
     ROTATION COMPATIBILITY TOLERANCE FOR DCOUP ELEMENTS               1.000E-05

 EQUILIBRIUM WILL BE CHECKED FOR SEVERE DISCONTINUITY ITERATIONS

 TIME INCREMENTATION CONTROL PARAMETERS:
     FIRST EQUILIBRIUM ITERATION FOR CONSECUTIVE DIVERGENCE CHECK              4
     EQUILIBRIUM ITERATION AT WHICH LOG. CONVERGENCE RATE CHECK BEGINS         8
     EQUILIBRIUM ITERATION AFTER WHICH ALTERNATE RESIDUAL IS USED              9
     MAXIMUM EQUILIBRIUM ITERATIONS ALLOWED                                   16
     EQUILIBRIUM ITERATION COUNT FOR CUT-BACK IN NEXT INCREMENT               10
     MAXIMUM EQUILIB. ITERS IN TWO INCREMENTS FOR TIME INCREMENT INCREASE      4
     MAXIMUM ITERATIONS FOR SEVERE DISCONTINUITIES                            50
     MAXIMUM ATTEMPTS ALLOWED IN AN INCREMENT                                  5
     MAXIMUM DISCON. ITERS IN TWO INCREMENTS FOR TIME INCREMENT INCREASE      50
     MAXIMUM CONTACT AUGMENTATIONS FOR *SURFACE BEHAVIOR,AUGMENTED LAGRANGE   50
     CUT-BACK FACTOR AFTER DIVERGENCE                                 0.2500    
     CUT-BACK FACTOR FOR TOO SLOW CONVERGENCE                         0.5000    
     CUT-BACK FACTOR AFTER TOO MANY EQUILIBRIUM ITERATIONS            0.7500    
     CUT-BACK FACTOR AFTER TOO MANY SEVERE DISCONTINUITY ITERATIONS   0.2500    
     CUT-BACK FACTOR AFTER PROBLEMS IN ELEMENT ASSEMBLY               0.2500    
     INCREASE FACTOR AFTER TWO INCREMENTS THAT CONVERGE QUICKLY        1.500    
     MAX. TIME INCREMENT INCREASE FACTOR ALLOWED                       1.500    
     MAX. TIME INCREMENT INCREASE FACTOR ALLOWED (DYNAMICS)            1.250    
     MAX. TIME INCREMENT INCREASE FACTOR ALLOWED (DIFFUSION)           2.000    
     MINIMUM TIME INCREMENT RATIO FOR EXTRAPOLATION TO OCCUR          0.1000    
     MAX. RATIO OF TIME INCREMENT TO STABILITY LIMIT                   1.000    
     FRACTION OF STABILITY LIMIT FOR NEW TIME INCREMENT               0.9500    
     TIME INCREMENT INCREASE FACTOR BEFORE A TIME POINT                1.000    

 CONTACT CONTROLS APPLIED TO ALL CONTACT PAIRS:
     GLOBAL STABILIZATION CONTROL IS NOT USED
     RELATIVE PENETRATION TOLERANCE FOR AUGMENTED LAGRANGE CONTACT:
          FINITE-SLIDING SURFACE-TO-SURFACE                            5.000E-02
          OTHERWISE                                                    1.000E-03

          PRINT OF INCREMENT NUMBER, TIME, ETC., EVERY    1  INCREMENTS

     THE MAXIMUM NUMBER OF INCREMENTS IN THIS STEP IS                   10000

     LINEAR EXTRAPOLATION WILL BE USED

     CHARACTERISTIC ELEMENT LENGTH      6.88    

     DETAILS REGARDING ACTUAL SOLUTION WAVEFRONT REQUESTED

     DETAILED OUTPUT OF DIAGNOSTICS TO DATABASE REQUESTED

     PRINT OF INCREMENT NUMBER, TIME, ETC., TO THE MESSAGE FILE EVERY     1  INCREMENTS

     ELEMENT OPERATIONS WILL BE CARRIED OUT IN PARALLEL USING   4 THREADS ON 1 DOMAIN

     PARALLEL CONTACT TRACKING ENABLED


     COLLECTING MODEL CONSTRAINT INFORMATION FOR OVERCONSTRAINT CHECKS

     COLLECTING STEP CONSTRAINT INFORMATION FOR OVERCONSTRAINT CHECKS


  INCREMENT     1 STARTS. ATTEMPT NUMBER  1, TIME INCREMENT  0.100    
 
     INITIAL ELEMENT LOAD BALANCE
            DOMAIN    1     THREAD    NUMBER OF ELEMENTS
                              1            8119
                              2            8864
                              3            8432
                              4            8656
 
	SYMMETRIC DIRECT SPARSE SOLVER RUNNING ON
 	1 HOST:        1 MPI RANK  x 4 THREADS
 	NUMBER OF EQUATIONS:     72617
 	NUMBER OF RHS:           1
 	NUMBER OF FLOPS:         5.252e+10

     CHECK POINT   START OF SOLVER    

     CHECK POINT  END OF SOLVER       

       ELAPSED USER TIME (SEC)      =   3.1000    
       ELAPSED SYSTEM TIME (SEC)    =   0.0000    
       ELAPSED TOTAL CPU TIME (SEC) =   3.1000    
       ELAPSED WALLCLOCK TIME (SEC) =          1

                  450 SEVERE DISCONTINUITIES OCCURRED DURING THIS ITERATION.
                  450 POINTS CHANGED FROM CLOSED TO OPEN

               CONVERGENCE CHECKS FOR SEVERE DISCONTINUITY ITERATION     1

   MAX. PENETRATION ERROR 7.04137E-18 AT NODE PLATE-1.19113 OF CONTACT PAIR 
   (ASSEMBLY_CP-2-PLATE-1,ASSEMBLY_CP-2-PLANE-1)
   MAX. CONTACT FORCE ERROR -11.3747E-03  AT NODE PLATE-1.17880 OF CONTACT PAIR 
   (ASSEMBLY_CP-2-PLATE-1,ASSEMBLY_CP-2-PLANE-1)
          THE ESTIMATED CONTACT FORCE ERROR IS OUTSIDE OF CONVERGENCE TOLERANCES.

 AVERAGE FORCE                      3.675E-03   TIME AVG. FORCE       3.675E-03
 LARGEST RESIDUAL FORCE             7.857E-02   AT NODE          7   DOF  1
   INSTANCE: T-BEAM-1-LIN-1-2                                                                
 LARGEST INCREMENT OF DISP.         1.873E-06   AT NODE          2   DOF  3
   INSTANCE: T-BEAM-1-LIN-1-3                                                                
 LARGEST CORRECTION TO DISP.        1.873E-06   AT NODE          2   DOF  3
   INSTANCE: T-BEAM-1-LIN-1-3                                                                
          FORCE     EQUILIBRIUM NOT ACHIEVED WITHIN TOLERANCE.

 AVERAGE MOMENT                     2.374E-02   TIME AVG. MOMENT      2.374E-02
 LARGEST RESIDUAL MOMENT            4.286E-02   AT NODE          7   DOF  6
   INSTANCE: T-BEAM-1-LIN-3-1                                                                
 LARGEST INCREMENT OF ROTATION     -7.324E-11   AT NODE          3   DOF  4
   INSTANCE: T-BEAM-1-LIN-3-1                                                                
 LARGEST CORRECTION TO ROTATION    -7.324E-11   AT NODE          3   DOF  4
   INSTANCE: T-BEAM-1-LIN-3-1                                                                
          MOMENT    EQUILIBRIUM NOT ACHIEVED WITHIN TOLERANCE.
 
	SYMMETRIC DIRECT SPARSE SOLVER RUNNING ON
 	1 HOST:        1 MPI RANK  x 4 THREADS
 	NUMBER OF EQUATIONS:     72617
 	NUMBER OF RHS:           1
 	NUMBER OF FLOPS:         5.228e+10

     CHECK POINT   START OF SOLVER    

     CHECK POINT  END OF SOLVER       

       ELAPSED USER TIME (SEC)      =   3.0000    
       ELAPSED SYSTEM TIME (SEC)    =   0.0000    
       ELAPSED TOTAL CPU TIME (SEC) =   3.0000    
       ELAPSED WALLCLOCK TIME (SEC) =          0

                 2198 SEVERE DISCONTINUITIES OCCURRED DURING THIS ITERATION.
                 2198 POINTS CHANGED FROM CLOSED TO OPEN

               CONVERGENCE CHECKS FOR SEVERE DISCONTINUITY ITERATION     2

   MAX. PENETRATION ERROR -539.819E-18   AT NODE PLATE-1.19822 OF CONTACT PAIR 
   (ASSEMBLY_CP-2-PLATE-1,ASSEMBLY_CP-2-PLANE-1)
   MAX. CONTACT FORCE ERROR -13.9412E-03  AT NODE PLATE-1.19578 OF CONTACT PAIR 
   (ASSEMBLY_CP-2-PLATE-1,ASSEMBLY_CP-2-PLANE-1)
          THE ESTIMATED CONTACT FORCE ERROR IS OUTSIDE OF CONVERGENCE TOLERANCES.

 AVERAGE FORCE                      4.004E-03   TIME AVG. FORCE       4.004E-03
 LARGEST RESIDUAL FORCE             1.188E-02   AT NODE      19578   DOF  3
   INSTANCE: PLATE-1                                                                         
 LARGEST INCREMENT OF DISP.         1.873E-06   AT NODE          2   DOF  3
   INSTANCE: T-BEAM-1-LIN-1-3                                                                
 LARGEST CORRECTION TO DISP.        3.951E-07   AT NODE      21146   DOF  1
   INSTANCE: PLATE-1                                                                         
          FORCE     EQUILIBRIUM NOT ACHIEVED WITHIN TOLERANCE.

 AVERAGE MOMENT                     2.265E-02   TIME AVG. MOMENT      2.265E-02
 LARGEST RESIDUAL MOMENT           -3.795E-07   AT NODE          7   DOF  6
   INSTANCE: T-BEAM-1-LIN-1-3                                                                
 LARGEST INCREMENT OF ROTATION     -2.626E-09   AT NODE          4   DOF  4
   INSTANCE: T-BEAM-1-LIN-3-1                                                                
 LARGEST CORRECTION TO ROTATION    -2.561E-09   AT NODE          4   DOF  4
   INSTANCE: T-BEAM-1                                                                        
          THE MOMENT    EQUILIBRIUM EQUATIONS HAVE CONVERGED
 
	SYMMETRIC DIRECT SPARSE SOLVER RUNNING ON
 	1 HOST:        1 MPI RANK  x 4 THREADS
 	NUMBER OF EQUATIONS:     72617
 	NUMBER OF RHS:           1
 	NUMBER OF FLOPS:         4.834e+10

     CHECK POINT   START OF SOLVER    

     CHECK POINT  END OF SOLVER       

       ELAPSED USER TIME (SEC)      =   2.7000    
       ELAPSED SYSTEM TIME (SEC)    =   0.0000    
       ELAPSED TOTAL CPU TIME (SEC) =   2.7000    
       ELAPSED WALLCLOCK TIME (SEC) =          1

                  477 SEVERE DISCONTINUITIES OCCURRED DURING THIS ITERATION.
                  477 POINTS CHANGED FROM CLOSED TO OPEN

               CONVERGENCE CHECKS FOR SEVERE DISCONTINUITY ITERATION     3

   MAX. PENETRATION ERROR -119.540E-18   AT NODE PLATE-1.18936 OF CONTACT PAIR 
   (ASSEMBLY_CP-2-PLATE-1,ASSEMBLY_CP-2-PLANE-1)
   MAX. CONTACT FORCE ERROR -25.3685E-03  AT NODE PLATE-1.20782 OF CONTACT PAIR 
   (ASSEMBLY_CP-2-PLATE-1,ASSEMBLY_CP-2-PLANE-1)
          THE ESTIMATED CONTACT FORCE ERROR IS OUTSIDE OF CONVERGENCE TOLERANCES.

 AVERAGE FORCE                      3.959E-03   TIME AVG. FORCE       3.959E-03
 LARGEST RESIDUAL FORCE             1.738E-02   AT NODE      20782   DOF  3
   INSTANCE: PLATE-1                                                                         
 LARGEST INCREMENT OF DISP.         1.873E-06   AT NODE          2   DOF  3
   INSTANCE: T-BEAM-1-LIN-2-1                                                                
 LARGEST CORRECTION TO DISP.        1.977E-07   AT NODE      17061   DOF  3
   INSTANCE: PLATE-1                                                                         
          FORCE     EQUILIBRIUM NOT ACHIEVED WITHIN TOLERANCE.

 AVERAGE MOMENT                     2.220E-02   TIME AVG. MOMENT      2.220E-02
 LARGEST RESIDUAL MOMENT           -6.361E-08   AT NODE          7   DOF  6
   INSTANCE: T-BEAM-1-LIN-1-3                                                                
 LARGEST INCREMENT OF ROTATION     -2.654E-09   AT NODE          4   DOF  5
   INSTANCE: T-BEAM-1                                                                        
 LARGEST CORRECTION TO ROTATION    -1.239E-10   AT NODE          9   DOF  5
   INSTANCE: PLATE-1                                                                         
          THE MOMENT    EQUILIBRIUM EQUATIONS HAVE CONVERGED
 
	SYMMETRIC DIRECT SPARSE SOLVER RUNNING ON
 	1 HOST:        1 MPI RANK  x 4 THREADS
 	NUMBER OF EQUATIONS:     72617
 	NUMBER OF RHS:           1
 	NUMBER OF FLOPS:         4.474e+10

     CHECK POINT   START OF SOLVER    

     CHECK POINT  END OF SOLVER       

       ELAPSED USER TIME (SEC)      =   2.5000    
       ELAPSED SYSTEM TIME (SEC)    =   0.0000    
       ELAPSED TOTAL CPU TIME (SEC) =   2.5000    
       ELAPSED WALLCLOCK TIME (SEC) =          0

                  129 SEVERE DISCONTINUITIES OCCURRED DURING THIS ITERATION.
                  129 POINTS CHANGED FROM CLOSED TO OPEN

               CONVERGENCE CHECKS FOR SEVERE DISCONTINUITY ITERATION     4

   MAX. PENETRATION ERROR -237.855E-18   AT NODE PLATE-1.17655 OF CONTACT PAIR 
   (ASSEMBLY_CP-2-PLATE-1,ASSEMBLY_CP-2-PLANE-1)
   MAX. CONTACT FORCE ERROR -20.4761E-03  AT NODE PLATE-1.19804 OF CONTACT PAIR 
   (ASSEMBLY_CP-2-PLATE-1,ASSEMBLY_CP-2-PLANE-1)
          THE ESTIMATED CONTACT FORCE ERROR IS OUTSIDE OF CONVERGENCE TOLERANCES.

 AVERAGE FORCE                      3.913E-03   TIME AVG. FORCE       3.913E-03
 LARGEST RESIDUAL FORCE             1.166E-02   AT NODE      19804   DOF  3
   INSTANCE: PLATE-1                                                                         
 LARGEST INCREMENT OF DISP.         1.873E-06   AT NODE          2   DOF  3
   INSTANCE: T-BEAM-1-LIN-2-1                                                                
 LARGEST CORRECTION TO DISP.        1.404E-07   AT NODE        113   DOF  3
   INSTANCE: PLATE-1                                                                         
          FORCE     EQUILIBRIUM NOT ACHIEVED WITHIN TOLERANCE.

 AVERAGE MOMENT                     2.187E-02   TIME AVG. MOMENT      2.187E-02
 LARGEST RESIDUAL MOMENT           -1.204E-08   AT NODE          7   DOF  6
   INSTANCE: T-BEAM-1-LIN-2-1                                                                
 LARGEST INCREMENT OF ROTATION     -2.660E-09   AT NODE          3   DOF  4
   INSTANCE: T-BEAM-1-LIN-3-1                                                                
 LARGEST CORRECTION TO ROTATION     6.057E-11   AT NODE          1   DOF  4
   INSTANCE: T-BEAM-1-LIN-1-3                                                                
          THE MOMENT    EQUILIBRIUM EQUATIONS HAVE CONVERGED
 
	SYMMETRIC DIRECT SPARSE SOLVER RUNNING ON
 	1 HOST:        1 MPI RANK  x 4 THREADS
 	NUMBER OF EQUATIONS:     72617
 	NUMBER OF RHS:           1
 	NUMBER OF FLOPS:         4.213e+10

     CHECK POINT   START OF SOLVER    

     CHECK POINT  END OF SOLVER       

       ELAPSED USER TIME (SEC)      =   2.4000    
       ELAPSED SYSTEM TIME (SEC)    =   0.0000    
       ELAPSED TOTAL CPU TIME (SEC) =   2.4000    
       ELAPSED WALLCLOCK TIME (SEC) =          1

                   11 SEVERE DISCONTINUITIES OCCURRED DURING THIS ITERATION.
                   11 POINTS CHANGED FROM CLOSED TO OPEN

               CONVERGENCE CHECKS FOR SEVERE DISCONTINUITY ITERATION     5

   MAX. PENETRATION ERROR -71.3136E-18  AT NODE PLATE-1.17277 OF CONTACT PAIR 
   (ASSEMBLY_CP-2-PLATE-1,ASSEMBLY_CP-2-PLANE-1)
   MAX. CONTACT FORCE ERROR -32.7345E-03  AT NODE PLATE-1.17084 OF CONTACT PAIR 
   (ASSEMBLY_CP-2-PLATE-1,ASSEMBLY_CP-2-PLANE-1)
          THE ESTIMATED CONTACT FORCE ERROR IS OUTSIDE OF CONVERGENCE TOLERANCES.

 AVERAGE FORCE                      3.905E-03   TIME AVG. FORCE       3.905E-03
 LARGEST RESIDUAL FORCE             1.841E-02   AT NODE      17084   DOF  3
   INSTANCE: PLATE-1                                                                         
 LARGEST INCREMENT OF DISP.         1.873E-06   AT NODE          2   DOF  3
   INSTANCE: T-BEAM-1-LIN-2-1                                                                
 LARGEST CORRECTION TO DISP.        1.196E-07   AT NODE      17085   DOF  3
   INSTANCE: PLATE-1                                                                         
          FORCE     EQUILIBRIUM NOT ACHIEVED WITHIN TOLERANCE.

 AVERAGE MOMENT                     2.182E-02   TIME AVG. MOMENT      2.182E-02
 LARGEST RESIDUAL MOMENT            1.282E-08   AT NODE          7   DOF  6
   INSTANCE: T-BEAM-1-LIN-1-3                                                                
 LARGEST INCREMENT OF ROTATION     -2.654E-09   AT NODE          3   DOF  5
   INSTANCE: T-BEAM-1                                                                        
 LARGEST CORRECTION TO ROTATION    -2.680E-11   AT NODE         73   DOF  5
   INSTANCE: PLATE-1                                                                         
          THE MOMENT    EQUILIBRIUM EQUATIONS HAVE CONVERGED
 
	SYMMETRIC DIRECT SPARSE SOLVER RUNNING ON
 	1 HOST:        1 MPI RANK  x 4 THREADS
 	NUMBER OF EQUATIONS:     72617
 	NUMBER OF RHS:           1
 	NUMBER OF FLOPS:         4.121e+10

     CHECK POINT   START OF SOLVER    

     CHECK POINT  END OF SOLVER       

       ELAPSED USER TIME (SEC)      =   2.5000    
       ELAPSED SYSTEM TIME (SEC)    =   0.0000    
       ELAPSED TOTAL CPU TIME (SEC) =   2.5000    
       ELAPSED WALLCLOCK TIME (SEC) =          1

                    8 SEVERE DISCONTINUITIES OCCURRED DURING THIS ITERATION.
                    8 POINTS CHANGED FROM CLOSED TO OPEN

               CONVERGENCE CHECKS FOR SEVERE DISCONTINUITY ITERATION     6

   MAX. PENETRATION ERROR -127.159E-18   AT NODE PLATE-1.17277 OF CONTACT PAIR 
   (ASSEMBLY_CP-2-PLATE-1,ASSEMBLY_CP-2-PLANE-1)
   MAX. CONTACT FORCE ERROR -4.88292E-03 AT NODE PLATE-1.20490 OF CONTACT PAIR 
   (ASSEMBLY_CP-2-PLATE-1,ASSEMBLY_CP-2-PLANE-1)
          THE ESTIMATED CONTACT FORCE ERROR IS OUTSIDE OF CONVERGENCE TOLERANCES.

 AVERAGE FORCE                      3.901E-03   TIME AVG. FORCE       3.901E-03
 LARGEST RESIDUAL FORCE             2.747E-03   AT NODE      20490   DOF  3
   INSTANCE: PLATE-1                                                                         
 LARGEST INCREMENT OF DISP.         1.873E-06   AT NODE          2   DOF  3
   INSTANCE: T-BEAM-1-LIN-2-1                                                                
 LARGEST CORRECTION TO DISP.        3.180E-07   AT NODE      16952   DOF  3
   INSTANCE: PLATE-1                                                                         
          FORCE     EQUILIBRIUM NOT ACHIEVED WITHIN TOLERANCE.

 AVERAGE MOMENT                     2.180E-02   TIME AVG. MOMENT      2.180E-02
 LARGEST RESIDUAL MOMENT           -5.967E-09   AT NODE          7   DOF  6
   INSTANCE: T-BEAM-1-LIN-2-1                                                                
 LARGEST INCREMENT OF ROTATION     -2.652E-09   AT NODE          3   DOF  5
   INSTANCE: T-BEAM-1                                                                        
 LARGEST CORRECTION TO ROTATION    -6.474E-11   AT NODE         73   DOF  5
   INSTANCE: PLATE-1                                                                         
          THE MOMENT    EQUILIBRIUM EQUATIONS HAVE CONVERGED
 
	SYMMETRIC DIRECT SPARSE SOLVER RUNNING ON
 	1 HOST:        1 MPI RANK  x 4 THREADS
 	NUMBER OF EQUATIONS:     72617
 	NUMBER OF RHS:           1
 	NUMBER OF FLOPS:         4.120e+10

     CHECK POINT   START OF SOLVER    

     CHECK POINT  END OF SOLVER       

       ELAPSED USER TIME (SEC)      =   2.6000    
       ELAPSED SYSTEM TIME (SEC)    =   0.0000    
       ELAPSED TOTAL CPU TIME (SEC) =   2.6000    
       ELAPSED WALLCLOCK TIME (SEC) =          0

               CONVERGENCE CHECKS FOR EQUILIBRIUM ITERATION     1

   MAX. PENETRATION ERROR -3.78815E-18 AT NODE PLATE-1.17277 OF CONTACT PAIR 
   (ASSEMBLY_CP-2-PLATE-1,ASSEMBLY_CP-2-PLANE-1)
   MAX. CONTACT FORCE ERROR -2.47517E-12 AT NODE PLATE-1.17879 OF CONTACT PAIR 
   (ASSEMBLY_CP-2-PLATE-1,ASSEMBLY_CP-2-PLANE-1)
          THE CONTACT CONSTRAINTS HAVE CONVERGED.

 AVERAGE FORCE                      3.901E-03   TIME AVG. FORCE       3.901E-03
 LARGEST RESIDUAL FORCE             6.363E-10   AT NODE      20432   DOF  2
   INSTANCE: PLATE-1                                                                         
 LARGEST INCREMENT OF DISP.         1.873E-06   AT NODE          2   DOF  3
   INSTANCE: T-BEAM-1-LIN-2-1                                                                
 LARGEST CORRECTION TO DISP.        1.258E-08   AT NODE      20490   DOF  3
   INSTANCE: PLATE-1                                                                         
          THE FORCE     EQUILIBRIUM EQUATIONS HAVE CONVERGED

 AVERAGE MOMENT                     2.180E-02   TIME AVG. MOMENT      2.180E-02
 LARGEST RESIDUAL MOMENT            2.860E-10   AT NODE          7   DOF  6
   INSTANCE: T-BEAM-1-LIN-2-1                                                                
 LARGEST INCREMENT OF ROTATION     -2.652E-09   AT NODE          3   DOF  5
   INSTANCE: T-BEAM-1                                                                        
 LARGEST CORRECTION TO ROTATION     2.818E-12   AT NODE          4   DOF  5
   INSTANCE: T-BEAM-1-LIN-3-2                                                                
          THE MOMENT    EQUILIBRIUM EQUATIONS HAVE CONVERGED

 ITERATION SUMMARY FOR THE INCREMENT:   7 TOTAL ITERATIONS, OF WHICH
   6 ARE SEVERE DISCONTINUITY ITERATIONS AND  1 ARE EQUILIBRIUM ITERATIONS.

 TIME INCREMENT COMPLETED  0.100    ,  FRACTION OF STEP COMPLETED  0.100    
 STEP TIME COMPLETED       0.100    ,  TOTAL TIME COMPLETED        0.100    


  INCREMENT     2 STARTS. ATTEMPT NUMBER  1, TIME INCREMENT  0.100    
 
	SYMMETRIC DIRECT SPARSE SOLVER RUNNING ON
 	1 HOST:        1 MPI RANK  x 4 THREADS
 	NUMBER OF EQUATIONS:     72617
 	NUMBER OF RHS:           1
 	NUMBER OF FLOPS:         4.120e+10

     CHECK POINT   START OF SOLVER    

     CHECK POINT  END OF SOLVER       

       ELAPSED USER TIME (SEC)      =   2.7000    
       ELAPSED SYSTEM TIME (SEC)    =   0.0000    
       ELAPSED TOTAL CPU TIME (SEC) =   2.7000    
       ELAPSED WALLCLOCK TIME (SEC) =          1

               CONVERGENCE CHECKS FOR EQUILIBRIUM ITERATION     1

   MAX. PENETRATION ERROR 149.915E-21   AT NODE PLATE-1.21135 OF CONTACT PAIR 
   (ASSEMBLY_CP-2-PLATE-1,ASSEMBLY_CP-2-PLANE-1)
   MAX. CONTACT FORCE ERROR 79.8088E-15  AT NODE PLATE-1.21127 OF CONTACT PAIR 
   (ASSEMBLY_CP-2-PLATE-1,ASSEMBLY_CP-2-PLANE-1)
          THE CONTACT CONSTRAINTS HAVE CONVERGED.

 AVERAGE FORCE                      1.278E-02   TIME AVG. FORCE       8.342E-03
 LARGEST RESIDUAL FORCE             2.586E-11   AT NODE          7   DOF  2
   INSTANCE: T-BEAM-1-LIN-1-3                                                                
 LARGEST INCREMENT OF DISP.         1.873E-06   AT NODE          2   DOF  3
   INSTANCE: T-BEAM-1-LIN-2-1                                                                
 LARGEST CORRECTION TO DISP.        7.528E-12   AT NODE      17355   DOF  1
   INSTANCE: PLATE-1                                                                         
          THE FORCE     EQUILIBRIUM RESPONSE WAS LINEAR IN THIS INCREMENT

 AVERAGE MOMENT                     0.800       TIME AVG. MOMENT      0.411    
 LARGEST RESIDUAL MOMENT           -8.877E-12   AT NODE          7   DOF  4
   INSTANCE: T-BEAM-1                                                                        
 LARGEST INCREMENT OF ROTATION     -2.652E-09   AT NODE          3   DOF  5
   INSTANCE: T-BEAM-1                                                                        
 LARGEST CORRECTION TO ROTATION     6.443E-14   AT NODE          4   DOF  5
   INSTANCE: T-BEAM-1                                                                        
          THE MOMENT    EQUILIBRIUM RESPONSE WAS LINEAR IN THIS INCREMENT
          TIME INCREMENT MAY NOW INCREASE TO    0.150    

 ITERATION SUMMARY FOR THE INCREMENT:   1 TOTAL ITERATIONS, OF WHICH
   0 ARE SEVERE DISCONTINUITY ITERATIONS AND  1 ARE EQUILIBRIUM ITERATIONS.

 TIME INCREMENT COMPLETED  0.100    ,  FRACTION OF STEP COMPLETED  0.200    
 STEP TIME COMPLETED       0.200    ,  TOTAL TIME COMPLETED        0.200    


  INCREMENT     3 STARTS. ATTEMPT NUMBER  1, TIME INCREMENT  0.150    
 
	SYMMETRIC DIRECT SPARSE SOLVER RUNNING ON
 	1 HOST:        1 MPI RANK  x 4 THREADS
 	NUMBER OF EQUATIONS:     72617
 	NUMBER OF RHS:           1
 	NUMBER OF FLOPS:         4.120e+10

     CHECK POINT   START OF SOLVER    

     CHECK POINT  END OF SOLVER       

       ELAPSED USER TIME (SEC)      =   2.5000    
       ELAPSED SYSTEM TIME (SEC)    =   0.0000    
       ELAPSED TOTAL CPU TIME (SEC) =   2.5000    
       ELAPSED WALLCLOCK TIME (SEC) =          1

               CONVERGENCE CHECKS FOR EQUILIBRIUM ITERATION     1

   MAX. PENETRATION ERROR 491.869E-21   AT NODE PLATE-1.19812 OF CONTACT PAIR 
   (ASSEMBLY_CP-2-PLATE-1,ASSEMBLY_CP-2-PLANE-1)
   MAX. CONTACT FORCE ERROR 261.778E-15   AT NODE PLATE-1.21127 OF CONTACT PAIR 
   (ASSEMBLY_CP-2-PLATE-1,ASSEMBLY_CP-2-PLANE-1)
          THE CONTACT CONSTRAINTS HAVE CONVERGED.

 AVERAGE FORCE                      2.216E-02   TIME AVG. FORCE       1.295E-02
 LARGEST RESIDUAL FORCE             8.485E-11   AT NODE          7   DOF  2
   INSTANCE: T-BEAM-1-LIN-1-3                                                                
 LARGEST INCREMENT OF DISP.         2.809E-06   AT NODE          2   DOF  3
   INSTANCE: T-BEAM-1-LIN-2-1                                                                
 LARGEST CORRECTION TO DISP.        1.411E-11   AT NODE      17355   DOF  1
   INSTANCE: PLATE-1                                                                         
          THE FORCE     EQUILIBRIUM RESPONSE WAS LINEAR IN THIS INCREMENT

 AVERAGE MOMENT                      1.40       TIME AVG. MOMENT      0.741    
 LARGEST RESIDUAL MOMENT           -2.907E-11   AT NODE          7   DOF  4
   INSTANCE: T-BEAM-1                                                                        
 LARGEST INCREMENT OF ROTATION     -3.978E-09   AT NODE          3   DOF  5
   INSTANCE: T-BEAM-1                                                                        
 LARGEST CORRECTION TO ROTATION     1.208E-13   AT NODE          4   DOF  5
   INSTANCE: T-BEAM-1                                                                        
          THE MOMENT    EQUILIBRIUM RESPONSE WAS LINEAR IN THIS INCREMENT
          TIME INCREMENT MAY NOW INCREASE TO    0.225    

 ITERATION SUMMARY FOR THE INCREMENT:   1 TOTAL ITERATIONS, OF WHICH
   0 ARE SEVERE DISCONTINUITY ITERATIONS AND  1 ARE EQUILIBRIUM ITERATIONS.

 TIME INCREMENT COMPLETED  0.150    ,  FRACTION OF STEP COMPLETED  0.350    
 STEP TIME COMPLETED       0.350    ,  TOTAL TIME COMPLETED        0.350    


  INCREMENT     4 STARTS. ATTEMPT NUMBER  1, TIME INCREMENT  0.225    
 
	SYMMETRIC DIRECT SPARSE SOLVER RUNNING ON
 	1 HOST:        1 MPI RANK  x 4 THREADS
 	NUMBER OF EQUATIONS:     72617
 	NUMBER OF RHS:           1
 	NUMBER OF FLOPS:         4.120e+10

     CHECK POINT   START OF SOLVER    

     CHECK POINT  END OF SOLVER       

       ELAPSED USER TIME (SEC)      =   2.5000    
       ELAPSED SYSTEM TIME (SEC)    =  0.10000    
       ELAPSED TOTAL CPU TIME (SEC) =   2.6000    
       ELAPSED WALLCLOCK TIME (SEC) =          1

               CONVERGENCE CHECKS FOR EQUILIBRIUM ITERATION     1

   MAX. PENETRATION ERROR 1.81730E-18 AT NODE PLATE-1.19812 OF CONTACT PAIR 
   (ASSEMBLY_CP-2-PLATE-1,ASSEMBLY_CP-2-PLANE-1)
   MAX. CONTACT FORCE ERROR 967.167E-15   AT NODE PLATE-1.19749 OF CONTACT PAIR 
   (ASSEMBLY_CP-2-PLATE-1,ASSEMBLY_CP-2-PLANE-1)
          THE CONTACT CONSTRAINTS HAVE CONVERGED.

 AVERAGE FORCE                      3.616E-02   TIME AVG. FORCE       1.875E-02
 LARGEST RESIDUAL FORCE             3.136E-10   AT NODE          7   DOF  2
   INSTANCE: T-BEAM-1-LIN-1-3                                                                
 LARGEST INCREMENT OF DISP.         4.214E-06   AT NODE          2   DOF  3
   INSTANCE: T-BEAM-1-LIN-2-1                                                                
 LARGEST CORRECTION TO DISP.        3.175E-11   AT NODE      17355   DOF  1
   INSTANCE: PLATE-1                                                                         
          THE FORCE     EQUILIBRIUM EQUATIONS HAVE CONVERGED

 AVERAGE MOMENT                      2.30       TIME AVG. MOMENT       1.13    
 LARGEST RESIDUAL MOMENT           -1.078E-10   AT NODE          7   DOF  4
   INSTANCE: T-BEAM-1                                                                        
 LARGEST INCREMENT OF ROTATION     -5.967E-09   AT NODE          3   DOF  5
   INSTANCE: T-BEAM-1                                                                        
 LARGEST CORRECTION TO ROTATION     2.718E-13   AT NODE          4   DOF  5
   INSTANCE: T-BEAM-1                                                                        
          THE MOMENT    EQUILIBRIUM RESPONSE WAS LINEAR IN THIS INCREMENT
          TIME INCREMENT MAY NOW INCREASE TO    0.338    

 ITERATION SUMMARY FOR THE INCREMENT:   1 TOTAL ITERATIONS, OF WHICH
   0 ARE SEVERE DISCONTINUITY ITERATIONS AND  1 ARE EQUILIBRIUM ITERATIONS.

 TIME INCREMENT COMPLETED  0.225    ,  FRACTION OF STEP COMPLETED  0.575    
 STEP TIME COMPLETED       0.575    ,  TOTAL TIME COMPLETED        0.575    


  INCREMENT     5 STARTS. ATTEMPT NUMBER  1, TIME INCREMENT  0.338    
 
	SYMMETRIC DIRECT SPARSE SOLVER RUNNING ON
 	1 HOST:        1 MPI RANK  x 4 THREADS
 	NUMBER OF EQUATIONS:     72617
 	NUMBER OF RHS:           1
 	NUMBER OF FLOPS:         4.120e+10

     CHECK POINT   START OF SOLVER    

     CHECK POINT  END OF SOLVER       

       ELAPSED USER TIME (SEC)      =   2.6000    
       ELAPSED SYSTEM TIME (SEC)    =   0.0000    
       ELAPSED TOTAL CPU TIME (SEC) =   2.6000    
       ELAPSED WALLCLOCK TIME (SEC) =          0

               CONVERGENCE CHECKS FOR EQUILIBRIUM ITERATION     1

   MAX. PENETRATION ERROR 6.48978E-18 AT NODE PLATE-1.19812 OF CONTACT PAIR 
   (ASSEMBLY_CP-2-PLATE-1,ASSEMBLY_CP-2-PLANE-1)
   MAX. CONTACT FORCE ERROR 3.45262E-12 AT NODE PLATE-1.19749 OF CONTACT PAIR 
   (ASSEMBLY_CP-2-PLATE-1,ASSEMBLY_CP-2-PLANE-1)
          THE CONTACT CONSTRAINTS HAVE CONVERGED.

 AVERAGE FORCE                      5.707E-02   TIME AVG. FORCE       2.642E-02
 LARGEST RESIDUAL FORCE             1.120E-09   AT NODE          7   DOF  2
   INSTANCE: T-BEAM-1-LIN-1-3                                                                
 LARGEST INCREMENT OF DISP.         6.321E-06   AT NODE          2   DOF  3
   INSTANCE: T-BEAM-1-LIN-2-1                                                                
 LARGEST CORRECTION TO DISP.        7.144E-11   AT NODE      17355   DOF  1
   INSTANCE: PLATE-1                                                                         
          THE FORCE     EQUILIBRIUM EQUATIONS HAVE CONVERGED

 AVERAGE MOMENT                      3.65       TIME AVG. MOMENT       1.63    
 LARGEST RESIDUAL MOMENT           -3.847E-10   AT NODE          7   DOF  4
   INSTANCE: T-BEAM-1                                                                        
 LARGEST INCREMENT OF ROTATION     -8.950E-09   AT NODE          3   DOF  5
   INSTANCE: T-BEAM-1                                                                        
 LARGEST CORRECTION TO ROTATION     6.115E-13   AT NODE          4   DOF  5
   INSTANCE: T-BEAM-1                                                                        
          THE MOMENT    EQUILIBRIUM RESPONSE WAS LINEAR IN THIS INCREMENT

 ITERATION SUMMARY FOR THE INCREMENT:   1 TOTAL ITERATIONS, OF WHICH
   0 ARE SEVERE DISCONTINUITY ITERATIONS AND  1 ARE EQUILIBRIUM ITERATIONS.

 TIME INCREMENT COMPLETED  0.338    ,  FRACTION OF STEP COMPLETED  0.913    
 STEP TIME COMPLETED       0.913    ,  TOTAL TIME COMPLETED        0.913    


  INCREMENT     6 STARTS. ATTEMPT NUMBER  1, TIME INCREMENT  8.750E-02
 
	SYMMETRIC DIRECT SPARSE SOLVER RUNNING ON
 	1 HOST:        1 MPI RANK  x 4 THREADS
 	NUMBER OF EQUATIONS:     72617
 	NUMBER OF RHS:           1
 	NUMBER OF FLOPS:         4.120e+10

     CHECK POINT   START OF SOLVER    

     CHECK POINT  END OF SOLVER       

       ELAPSED USER TIME (SEC)      =   2.2000    
       ELAPSED SYSTEM TIME (SEC)    =   0.0000    
       ELAPSED TOTAL CPU TIME (SEC) =   2.2000    
       ELAPSED WALLCLOCK TIME (SEC) =          1

               CONVERGENCE CHECKS FOR EQUILIBRIUM ITERATION     1

   MAX. PENETRATION ERROR 1.39181E-18 AT NODE PLATE-1.19757 OF CONTACT PAIR 
   (ASSEMBLY_CP-2-PLATE-1,ASSEMBLY_CP-2-PLANE-1)
   MAX. CONTACT FORCE ERROR 740.715E-15   AT NODE PLATE-1.21127 OF CONTACT PAIR 
   (ASSEMBLY_CP-2-PLATE-1,ASSEMBLY_CP-2-PLANE-1)
          THE CONTACT CONSTRAINTS HAVE CONVERGED.

 AVERAGE FORCE                      6.332E-02   TIME AVG. FORCE       3.257E-02
 LARGEST RESIDUAL FORCE             2.404E-10   AT NODE          7   DOF  2
   INSTANCE: T-BEAM-1-LIN-1-3                                                                
 LARGEST INCREMENT OF DISP.         1.639E-06   AT NODE          2   DOF  3
   INSTANCE: T-BEAM-1-LIN-2-1                                                                
 LARGEST CORRECTION TO DISP.        1.399E-11   AT NODE      17355   DOF  1
   INSTANCE: PLATE-1                                                                         
          THE FORCE     EQUILIBRIUM RESPONSE WAS LINEAR IN THIS INCREMENT

 AVERAGE MOMENT                      4.00       TIME AVG. MOMENT       2.03    
 LARGEST RESIDUAL MOMENT           -8.266E-11   AT NODE          7   DOF  4
   INSTANCE: T-BEAM-1                                                                        
 LARGEST INCREMENT OF ROTATION     -2.320E-09   AT NODE          3   DOF  5
   INSTANCE: T-BEAM-1                                                                        
 LARGEST CORRECTION TO ROTATION     1.198E-13   AT NODE          4   DOF  5
   INSTANCE: T-BEAM-1                                                                        
          THE MOMENT    EQUILIBRIUM RESPONSE WAS LINEAR IN THIS INCREMENT

 ITERATION SUMMARY FOR THE INCREMENT:   1 TOTAL ITERATIONS, OF WHICH
   0 ARE SEVERE DISCONTINUITY ITERATIONS AND  1 ARE EQUILIBRIUM ITERATIONS.

 TIME INCREMENT COMPLETED  8.750E-02,  FRACTION OF STEP COMPLETED   1.00    
 STEP TIME COMPLETED        1.00    ,  TOTAL TIME COMPLETED         1.00    
1

   Abaqus 2022                                  Date 12-7ÔÂ-2024   Time 09:39:51
   For use by Supplied by Team-SolidSQUAD under license from Dassault Systemes or its subsidiary.

                                                                                 
                                                                                 
 STEP    2     INCREMENT     1     STEP TIME    0.00    


                        S T E P       2     S T A T I C   A N A L Y S I S


                                                                                          

     AUTOMATIC TIME CONTROL WITH -
          A SUGGESTED INITIAL TIME INCREMENT OF                0.100    
          AND A TOTAL TIME PERIOD OF                            1.00    
          THE MINIMUM TIME INCREMENT ALLOWED IS                1.000E-05
          THE MAXIMUM TIME INCREMENT ALLOWED IS                 1.00    

     LINEAR EQUATION SOLVER TYPE         DIRECT SPARSE

 CONVERGENCE TOLERANCE PARAMETERS FOR FORCE    
     CRITERION FOR RESIDUAL FORCE     FOR A NONLINEAR PROBLEM          5.000E-03
     CRITERION FOR DISP.    CORRECTION IN A NONLINEAR PROBLEM          1.000E-02
     INIT. VALUE OF TIME AVG. FORCE     IS TIME AVG. FORCE     IN PREVIOUS STEP
     AVERAGE FORCE     IS TIME AVERAGE FORCE    
     ALTERNATE CRIT. FOR RESIDUAL FORCE     FOR A NONLINEAR PROBLEM    2.000E-02
     CRITERION FOR ZERO FORCE     RELATIVE TO TIME AVRG. FORCE         1.000E-05
     CRITERION FOR RESIDUAL FORCE     WHEN THERE IS ZERO FLUX          1.000E-05
     CRITERION FOR DISP.    CORRECTION WHEN THERE IS ZERO FLUX         1.000E-03
     CRITERION FOR RESIDUAL FORCE     FOR A LINEAR INCREMENT           1.000E-08
     FIELD CONVERSION RATIO                                             1.00    
     CRITERION FOR ZERO FORCE     REL. TO TIME AVRG. MAX. FORCE        1.000E-05
     CRITERION FOR ZERO DISP.    RELATIVE TO CHARACTERISTIC LENGTH     1.000E-08

 CONVERGENCE TOLERANCE PARAMETERS FOR MOMENT   
     CRITERION FOR RESIDUAL MOMENT    FOR A NONLINEAR PROBLEM          5.000E-03
     CRITERION FOR ROTATION CORRECTION IN A NONLINEAR PROBLEM          1.000E-02
     INIT. VALUE OF TIME AVG. MOMENT    IS TIME AVG. MOMENT    IN PREVIOUS STEP
     AVERAGE MOMENT    IS TIME AVERAGE MOMENT   
     ALTERNATE CRIT. FOR RESIDUAL MOMENT    FOR A NONLINEAR PROBLEM    2.000E-02
     CRITERION FOR ZERO MOMENT    RELATIVE TO TIME AVRG. MOMENT        1.000E-05
     CRITERION FOR RESIDUAL MOMENT    WHEN THERE IS ZERO FLUX          1.000E-05
     CRITERION FOR ROTATION CORRECTION WHEN THERE IS ZERO FLUX         1.000E-03
     CRITERION FOR RESIDUAL MOMENT    FOR A LINEAR INCREMENT           1.000E-08
     FIELD CONVERSION RATIO                                             1.00    
     CRITERION FOR ZERO MOMENT    REL. TO TIME AVRG. MAX. MOMENT       1.000E-05

     VOLUMETRIC STRAIN COMPATIBILITY TOLERANCE FOR HYBRID SOLIDS       1.000E-05
     AXIAL STRAIN COMPATIBILITY TOLERANCE FOR HYBRID BEAMS             1.000E-05
     TRANS. SHEAR STRAIN COMPATIBILITY TOLERANCE FOR HYBRID BEAMS      1.000E-05
     SOFT CONTACT CONSTRAINT COMPATIBILITY TOLERANCE FOR P>P0          5.000E-03
     SOFT CONTACT CONSTRAINT COMPATIBILITY TOLERANCE FOR P=0.0         0.100    
     CONTACT FORCE ERROR TOLERANCE FOR CONVERT SDI=YES                 1.00    
     DISPLACEMENT COMPATIBILITY TOLERANCE FOR DCOUP ELEMENTS           1.000E-05
     ROTATION COMPATIBILITY TOLERANCE FOR DCOUP ELEMENTS               1.000E-05

 EQUILIBRIUM WILL BE CHECKED FOR SEVERE DISCONTINUITY ITERATIONS

 TIME INCREMENTATION CONTROL PARAMETERS:
     FIRST EQUILIBRIUM ITERATION FOR CONSECUTIVE DIVERGENCE CHECK              4
     EQUILIBRIUM ITERATION AT WHICH LOG. CONVERGENCE RATE CHECK BEGINS         8
     EQUILIBRIUM ITERATION AFTER WHICH ALTERNATE RESIDUAL IS USED              9
     MAXIMUM EQUILIBRIUM ITERATIONS ALLOWED                                   16
     EQUILIBRIUM ITERATION COUNT FOR CUT-BACK IN NEXT INCREMENT               10
     MAXIMUM EQUILIB. ITERS IN TWO INCREMENTS FOR TIME INCREMENT INCREASE      4
     MAXIMUM ITERATIONS FOR SEVERE DISCONTINUITIES                            50
     MAXIMUM ATTEMPTS ALLOWED IN AN INCREMENT                                  5
     MAXIMUM DISCON. ITERS IN TWO INCREMENTS FOR TIME INCREMENT INCREASE      50
     MAXIMUM CONTACT AUGMENTATIONS FOR *SURFACE BEHAVIOR,AUGMENTED LAGRANGE   50
     CUT-BACK FACTOR AFTER DIVERGENCE                                 0.2500    
     CUT-BACK FACTOR FOR TOO SLOW CONVERGENCE                         0.5000    
     CUT-BACK FACTOR AFTER TOO MANY EQUILIBRIUM ITERATIONS            0.7500    
     CUT-BACK FACTOR AFTER TOO MANY SEVERE DISCONTINUITY ITERATIONS   0.2500    
     CUT-BACK FACTOR AFTER PROBLEMS IN ELEMENT ASSEMBLY               0.2500    
     INCREASE FACTOR AFTER TWO INCREMENTS THAT CONVERGE QUICKLY        1.500    
     MAX. TIME INCREMENT INCREASE FACTOR ALLOWED                       1.500    
     MAX. TIME INCREMENT INCREASE FACTOR ALLOWED (DYNAMICS)            1.250    
     MAX. TIME INCREMENT INCREASE FACTOR ALLOWED (DIFFUSION)           2.000    
     MINIMUM TIME INCREMENT RATIO FOR EXTRAPOLATION TO OCCUR          0.1000    
     MAX. RATIO OF TIME INCREMENT TO STABILITY LIMIT                   1.000    
     FRACTION OF STABILITY LIMIT FOR NEW TIME INCREMENT               0.9500    
     TIME INCREMENT INCREASE FACTOR BEFORE A TIME POINT                1.000    

 CONTACT CONTROLS APPLIED TO ALL CONTACT PAIRS:
     GLOBAL STABILIZATION CONTROL IS NOT USED
     RELATIVE PENETRATION TOLERANCE FOR AUGMENTED LAGRANGE CONTACT:
          FINITE-SLIDING SURFACE-TO-SURFACE                            5.000E-02
          OTHERWISE                                                    1.000E-03

          PRINT OF INCREMENT NUMBER, TIME, ETC., EVERY    1  INCREMENTS

     THE MAXIMUM NUMBER OF INCREMENTS IN THIS STEP IS                   10000

     LINEAR EXTRAPOLATION WILL BE USED

     CHARACTERISTIC ELEMENT LENGTH      6.88    

     DETAILS REGARDING ACTUAL SOLUTION WAVEFRONT REQUESTED

     DETAILED OUTPUT OF DIAGNOSTICS TO DATABASE REQUESTED

     PRINT OF INCREMENT NUMBER, TIME, ETC., TO THE MESSAGE FILE EVERY     1  INCREMENTS

     ELEMENT OPERATIONS WILL BE CARRIED OUT IN PARALLEL USING   4 THREADS ON 1 DOMAIN

     COLLECTING STEP CONSTRAINT INFORMATION FOR OVERCONSTRAINT CHECKS


  INCREMENT     1 STARTS. ATTEMPT NUMBER  1, TIME INCREMENT  0.100    
 
     INITIAL ELEMENT LOAD BALANCE
            DOMAIN    1     THREAD    NUMBER OF ELEMENTS
                              1            8647
                              2            8432
                              3            8520
                              4            8472
 
	SYMMETRIC DIRECT SPARSE SOLVER RUNNING ON
 	1 HOST:        1 MPI RANK  x 4 THREADS
 	NUMBER OF EQUATIONS:     72617
 	NUMBER OF RHS:           1
 	NUMBER OF FLOPS:         4.120e+10

     CHECK POINT   START OF SOLVER    

     CHECK POINT  END OF SOLVER       

       ELAPSED USER TIME (SEC)      =   2.6000    
       ELAPSED SYSTEM TIME (SEC)    =   0.0000    
       ELAPSED TOTAL CPU TIME (SEC) =   2.6000    
       ELAPSED WALLCLOCK TIME (SEC) =          1

               CONVERGENCE CHECKS FOR EQUILIBRIUM ITERATION     1

   MAX. PENETRATION ERROR 798.712E-12   AT NODE PLATE-1.19654 OF CONTACT PAIR 
   (ASSEMBLY_CP-2-PLATE-1,ASSEMBLY_CP-2-PLANE-1)
   MAX. CONTACT FORCE ERROR 424.186E-06   AT NODE PLATE-1.17879 OF CONTACT PAIR 
   (ASSEMBLY_CP-2-PLATE-1,ASSEMBLY_CP-2-PLANE-1)
          THE CONTACT CONSTRAINTS HAVE CONVERGED.

 AVERAGE FORCE                       7.28       TIME AVG. FORCE        7.28    
 LARGEST RESIDUAL FORCE             -7.39       AT NODE          7   DOF  2
   INSTANCE: T-BEAM-1-LIN-1-3                                                                
 LARGEST INCREMENT OF DISP.         2.446E-03   AT NODE          2   DOF  3
   INSTANCE: T-BEAM-1-LIN-2-1                                                                
 LARGEST CORRECTION TO DISP.        2.446E-03   AT NODE          2   DOF  3
   INSTANCE: T-BEAM-1-LIN-2-1                                                                
          FORCE     EQUILIBRIUM NOT ACHIEVED WITHIN TOLERANCE.

 AVERAGE MOMENT                      525.       TIME AVG. MOMENT       525.    
 LARGEST RESIDUAL MOMENT            -4.90       AT NODE          7   DOF  6
   INSTANCE: T-BEAM-1-LIN-1-3                                                                
 LARGEST INCREMENT OF ROTATION     -3.463E-06   AT NODE          3   DOF  5
   INSTANCE: T-BEAM-1                                                                        
 LARGEST CORRECTION TO ROTATION    -3.463E-06   AT NODE          3   DOF  5
   INSTANCE: T-BEAM-1                                                                        
          MOMENT    EQUILIBRIUM NOT ACHIEVED WITHIN TOLERANCE.
 
	SYMMETRIC DIRECT SPARSE SOLVER RUNNING ON
 	1 HOST:        1 MPI RANK  x 4 THREADS
 	NUMBER OF EQUATIONS:     72617
 	NUMBER OF RHS:           1
 	NUMBER OF FLOPS:         4.120e+10

     CHECK POINT   START OF SOLVER    

     CHECK POINT  END OF SOLVER       

       ELAPSED USER TIME (SEC)      =   2.7000    
       ELAPSED SYSTEM TIME (SEC)    =  0.10000    
       ELAPSED TOTAL CPU TIME (SEC) =   2.8000    
       ELAPSED WALLCLOCK TIME (SEC) =          1

               CONVERGENCE CHECKS FOR EQUILIBRIUM ITERATION     2

   MAX. PENETRATION ERROR 83.3144E-12  AT NODE PLATE-1.19812 OF CONTACT PAIR 
   (ASSEMBLY_CP-2-PLATE-1,ASSEMBLY_CP-2-PLANE-1)
   MAX. CONTACT FORCE ERROR 44.3239E-06  AT NODE PLATE-1.19749 OF CONTACT PAIR 
   (ASSEMBLY_CP-2-PLATE-1,ASSEMBLY_CP-2-PLANE-1)
          THE CONTACT CONSTRAINTS HAVE CONVERGED.

 AVERAGE FORCE                       7.27       TIME AVG. FORCE        7.27    
 LARGEST RESIDUAL FORCE             1.418E-02   AT NODE          7   DOF  2
   INSTANCE: T-BEAM-1-LIN-1-3                                                                
 LARGEST INCREMENT OF DISP.         2.446E-03   AT NODE          2   DOF  3
   INSTANCE: T-BEAM-1-LIN-2-1                                                                
 LARGEST CORRECTION TO DISP.        6.363E-06   AT NODE      17355   DOF  1
   INSTANCE: PLATE-1                                                                         
          THE FORCE     EQUILIBRIUM EQUATIONS HAVE CONVERGED

 AVERAGE MOMENT                      525.       TIME AVG. MOMENT       525.    
 LARGEST RESIDUAL MOMENT           -4.944E-03   AT NODE          7   DOF  4
   INSTANCE: T-BEAM-1                                                                        
 LARGEST INCREMENT OF ROTATION     -3.409E-06   AT NODE          3   DOF  5
   INSTANCE: T-BEAM-1                                                                        
 LARGEST CORRECTION TO ROTATION     5.432E-08   AT NODE          4   DOF  5
   INSTANCE: T-BEAM-1                                                                        
          ROTATION CORRECTION TOO LARGE COMPARED TO ROTATION INCREMENT
 
	SYMMETRIC DIRECT SPARSE SOLVER RUNNING ON
 	1 HOST:        1 MPI RANK  x 4 THREADS
 	NUMBER OF EQUATIONS:     72617
 	NUMBER OF RHS:           1
 	NUMBER OF FLOPS:         4.120e+10

     CHECK POINT   START OF SOLVER    

     CHECK POINT  END OF SOLVER       

       ELAPSED USER TIME (SEC)      =   2.4000    
       ELAPSED SYSTEM TIME (SEC)    =   0.0000    
       ELAPSED TOTAL CPU TIME (SEC) =   2.4000    
       ELAPSED WALLCLOCK TIME (SEC) =          1

               CONVERGENCE CHECKS FOR EQUILIBRIUM ITERATION     3

   MAX. PENETRATION ERROR 113.188E-15   AT NODE PLATE-1.19812 OF CONTACT PAIR 
   (ASSEMBLY_CP-2-PLATE-1,ASSEMBLY_CP-2-PLANE-1)
   MAX. CONTACT FORCE ERROR 60.2096E-09  AT NODE PLATE-1.19812 OF CONTACT PAIR 
   (ASSEMBLY_CP-2-PLATE-1,ASSEMBLY_CP-2-PLANE-1)
          THE CONTACT CONSTRAINTS HAVE CONVERGED.

 AVERAGE FORCE                       7.27       TIME AVG. FORCE        7.27    
 LARGEST RESIDUAL FORCE             4.374E-06   AT NODE          7   DOF  2
   INSTANCE: T-BEAM-1-LIN-1-3                                                                
 LARGEST INCREMENT OF DISP.         2.446E-03   AT NODE          2   DOF  3
   INSTANCE: T-BEAM-1-LIN-2-1                                                                
 LARGEST CORRECTION TO DISP.       -1.056E-08   AT NODE      17039   DOF  3
   INSTANCE: PLATE-1                                                                         
          THE FORCE     EQUILIBRIUM EQUATIONS HAVE CONVERGED

 AVERAGE MOMENT                      525.       TIME AVG. MOMENT       525.    
 LARGEST RESIDUAL MOMENT            7.505E-06   AT NODE          7   DOF  6
   INSTANCE: T-BEAM-1-LIN-1-3                                                                
 LARGEST INCREMENT OF ROTATION     -3.409E-06   AT NODE          3   DOF  5
   INSTANCE: T-BEAM-1                                                                        
 LARGEST CORRECTION TO ROTATION     4.004E-11   AT NODE          3   DOF  5
   INSTANCE: T-BEAM-1                                                                        
          THE MOMENT    EQUILIBRIUM EQUATIONS HAVE CONVERGED

 ITERATION SUMMARY FOR THE INCREMENT:   3 TOTAL ITERATIONS, OF WHICH
   0 ARE SEVERE DISCONTINUITY ITERATIONS AND  3 ARE EQUILIBRIUM ITERATIONS.

 TIME INCREMENT COMPLETED  0.100    ,  FRACTION OF STEP COMPLETED  0.100    
 STEP TIME COMPLETED       0.100    ,  TOTAL TIME COMPLETED         1.10    


  INCREMENT     2 STARTS. ATTEMPT NUMBER  1, TIME INCREMENT  0.100    
 
	SYMMETRIC DIRECT SPARSE SOLVER RUNNING ON
 	1 HOST:        1 MPI RANK  x 4 THREADS
 	NUMBER OF EQUATIONS:     72617
 	NUMBER OF RHS:           1
 	NUMBER OF FLOPS:         4.120e+10

     CHECK POINT   START OF SOLVER    

     CHECK POINT  END OF SOLVER       

       ELAPSED USER TIME (SEC)      =   2.5000    
       ELAPSED SYSTEM TIME (SEC)    =   0.0000    
       ELAPSED TOTAL CPU TIME (SEC) =   2.5000    
       ELAPSED WALLCLOCK TIME (SEC) =          1

               CONVERGENCE CHECKS FOR EQUILIBRIUM ITERATION     1

   MAX. PENETRATION ERROR 315.418E-12   AT NODE PLATE-1.19812 OF CONTACT PAIR 
   (ASSEMBLY_CP-2-PLATE-1,ASSEMBLY_CP-2-PLANE-1)
   MAX. CONTACT FORCE ERROR 167.786E-06   AT NODE PLATE-1.19812 OF CONTACT PAIR 
   (ASSEMBLY_CP-2-PLATE-1,ASSEMBLY_CP-2-PLANE-1)
          THE CONTACT CONSTRAINTS HAVE CONVERGED.

 AVERAGE FORCE                       16.5       TIME AVG. FORCE        11.9    
 LARGEST RESIDUAL FORCE             5.387E-02   AT NODE          7   DOF  2
   INSTANCE: T-BEAM-1-LIN-1-3                                                                
 LARGEST INCREMENT OF DISP.         2.446E-03   AT NODE          2   DOF  3
   INSTANCE: T-BEAM-1-LIN-2-1                                                                
 LARGEST CORRECTION TO DISP.        1.223E-05   AT NODE      17355   DOF  1
   INSTANCE: PLATE-1                                                                         
          THE FORCE     EQUILIBRIUM EQUATIONS HAVE CONVERGED

 AVERAGE MOMENT                     1.045E+03   TIME AVG. MOMENT       785.    
 LARGEST RESIDUAL MOMENT           -1.888E-02   AT NODE          7   DOF  4
   INSTANCE: T-BEAM-1                                                                        
 LARGEST INCREMENT OF ROTATION     -3.306E-06   AT NODE          3   DOF  5
   INSTANCE: T-BEAM-1                                                                        
 LARGEST CORRECTION TO ROTATION     1.040E-07   AT NODE          4   DOF  5
   INSTANCE: T-BEAM-1                                                                        
 ESTIMATE OF ROTATION CORRECTION    2.060E-10
 MOMENT    EQUILIB. ACCEPTED BASED ON SMALL RESIDUAL AND ESTIMATED CORRECTION
          TIME INCREMENT MAY NOW INCREASE TO    0.150    

 ITERATION SUMMARY FOR THE INCREMENT:   1 TOTAL ITERATIONS, OF WHICH
   0 ARE SEVERE DISCONTINUITY ITERATIONS AND  1 ARE EQUILIBRIUM ITERATIONS.

 TIME INCREMENT COMPLETED  0.100    ,  FRACTION OF STEP COMPLETED  0.200    
 STEP TIME COMPLETED       0.200    ,  TOTAL TIME COMPLETED         1.20    


  INCREMENT     3 STARTS. ATTEMPT NUMBER  1, TIME INCREMENT  0.150    
 
	SYMMETRIC DIRECT SPARSE SOLVER RUNNING ON
 	1 HOST:        1 MPI RANK  x 4 THREADS
 	NUMBER OF EQUATIONS:     72617
 	NUMBER OF RHS:           1
 	NUMBER OF FLOPS:         4.120e+10

     CHECK POINT   START OF SOLVER    

     CHECK POINT  END OF SOLVER       

       ELAPSED USER TIME (SEC)      =   2.7000    
       ELAPSED SYSTEM TIME (SEC)    =   0.0000    
       ELAPSED TOTAL CPU TIME (SEC) =   2.7000    
       ELAPSED WALLCLOCK TIME (SEC) =          1

               CONVERGENCE CHECKS FOR EQUILIBRIUM ITERATION     1

   MAX. PENETRATION ERROR 966.543E-12   AT NODE PLATE-1.19812 OF CONTACT PAIR 
   (ASSEMBLY_CP-2-PLATE-1,ASSEMBLY_CP-2-PLANE-1)
   MAX. CONTACT FORCE ERROR 514.155E-06   AT NODE PLATE-1.19812 OF CONTACT PAIR 
   (ASSEMBLY_CP-2-PLATE-1,ASSEMBLY_CP-2-PLANE-1)
          THE CONTACT CONSTRAINTS HAVE CONVERGED.

 AVERAGE FORCE                       28.3       TIME AVG. FORCE        17.4    
 LARGEST RESIDUAL FORCE             0.166       AT NODE          7   DOF  2
   INSTANCE: T-BEAM-1-LIN-1-3                                                                
 LARGEST INCREMENT OF DISP.         3.669E-03   AT NODE          2   DOF  3
   INSTANCE: T-BEAM-1-LIN-2-1                                                                
 LARGEST CORRECTION TO DISP.        2.164E-05   AT NODE      17355   DOF  1
   INSTANCE: PLATE-1                                                                         
          FORCE     EQUILIBRIUM NOT ACHIEVED WITHIN TOLERANCE.

 AVERAGE MOMENT                     1.824E+03   TIME AVG. MOMENT      1.131E+03
 LARGEST RESIDUAL MOMENT           -5.803E-02   AT NODE          7   DOF  4
   INSTANCE: T-BEAM-1                                                                        
 LARGEST INCREMENT OF ROTATION     -4.778E-06   AT NODE          3   DOF  5
   INSTANCE: T-BEAM-1                                                                        
 LARGEST CORRECTION TO ROTATION     1.835E-07   AT NODE          4   DOF  5
   INSTANCE: T-BEAM-1                                                                        
 ESTIMATE OF ROTATION CORRECTION    6.203E-10
 MOMENT    EQUILIB. ACCEPTED BASED ON SMALL RESIDUAL AND ESTIMATED CORRECTION
 
	SYMMETRIC DIRECT SPARSE SOLVER RUNNING ON
 	1 HOST:        1 MPI RANK  x 4 THREADS
 	NUMBER OF EQUATIONS:     72617
 	NUMBER OF RHS:           1
 	NUMBER OF FLOPS:         4.120e+10

     CHECK POINT   START OF SOLVER    

     CHECK POINT  END OF SOLVER       

       ELAPSED USER TIME (SEC)      =   2.6000    
       ELAPSED SYSTEM TIME (SEC)    =   0.0000    
       ELAPSED TOTAL CPU TIME (SEC) =   2.6000    
       ELAPSED WALLCLOCK TIME (SEC) =          1

               CONVERGENCE CHECKS FOR EQUILIBRIUM ITERATION     2

   MAX. PENETRATION ERROR 4.44354E-12 AT NODE PLATE-1.19812 OF CONTACT PAIR 
   (ASSEMBLY_CP-2-PLATE-1,ASSEMBLY_CP-2-PLANE-1)
   MAX. CONTACT FORCE ERROR 2.36375E-06 AT NODE PLATE-1.19812 OF CONTACT PAIR 
   (ASSEMBLY_CP-2-PLATE-1,ASSEMBLY_CP-2-PLANE-1)
          THE CONTACT CONSTRAINTS HAVE CONVERGED.

 AVERAGE FORCE                       28.3       TIME AVG. FORCE        17.4    
 LARGEST RESIDUAL FORCE             1.675E-04   AT NODE          7   DOF  2
   INSTANCE: T-BEAM-1-LIN-1-3                                                                
 LARGEST INCREMENT OF DISP.         3.669E-03   AT NODE          2   DOF  3
   INSTANCE: T-BEAM-1-LIN-2-1                                                                
 LARGEST CORRECTION TO DISP.       -1.226E-07   AT NODE      17039   DOF  3
   INSTANCE: PLATE-1                                                                         
          THE FORCE     EQUILIBRIUM EQUATIONS HAVE CONVERGED

 AVERAGE MOMENT                     1.824E+03   TIME AVG. MOMENT      1.131E+03
 LARGEST RESIDUAL MOMENT            2.902E-04   AT NODE          7   DOF  6
   INSTANCE: T-BEAM-1-LIN-1-3                                                                
 LARGEST INCREMENT OF ROTATION     -4.777E-06   AT NODE          3   DOF  5
   INSTANCE: T-BEAM-1                                                                        
 LARGEST CORRECTION TO ROTATION     4.603E-10   AT NODE          3   DOF  5
   INSTANCE: T-BEAM-1                                                                        
          THE MOMENT    EQUILIBRIUM EQUATIONS HAVE CONVERGED
          TIME INCREMENT MAY NOW INCREASE TO    0.225    

 ITERATION SUMMARY FOR THE INCREMENT:   2 TOTAL ITERATIONS, OF WHICH
   0 ARE SEVERE DISCONTINUITY ITERATIONS AND  2 ARE EQUILIBRIUM ITERATIONS.

 TIME INCREMENT COMPLETED  0.150    ,  FRACTION OF STEP COMPLETED  0.350    
 STEP TIME COMPLETED       0.350    ,  TOTAL TIME COMPLETED         1.35    


  INCREMENT     4 STARTS. ATTEMPT NUMBER  1, TIME INCREMENT  0.225    
 
	SYMMETRIC DIRECT SPARSE SOLVER RUNNING ON
 	1 HOST:        1 MPI RANK  x 4 THREADS
 	NUMBER OF EQUATIONS:     72617
 	NUMBER OF RHS:           1
 	NUMBER OF FLOPS:         4.120e+10

     CHECK POINT   START OF SOLVER    

     CHECK POINT  END OF SOLVER       

       ELAPSED USER TIME (SEC)      =   2.3000    
       ELAPSED SYSTEM TIME (SEC)    =   0.0000    
       ELAPSED TOTAL CPU TIME (SEC) =   2.3000    
       ELAPSED WALLCLOCK TIME (SEC) =          1

               CONVERGENCE CHECKS FOR EQUILIBRIUM ITERATION     1

   MAX. PENETRATION ERROR 3.23909E-09 AT NODE PLATE-1.19812 OF CONTACT PAIR 
   (ASSEMBLY_CP-2-PLATE-1,ASSEMBLY_CP-2-PLANE-1)
   MAX. CONTACT FORCE ERROR 1.72307E-03 AT NODE PLATE-1.19812 OF CONTACT PAIR 
   (ASSEMBLY_CP-2-PLATE-1,ASSEMBLY_CP-2-PLANE-1)
          THE CONTACT CONSTRAINTS HAVE CONVERGED.

 AVERAGE FORCE                       45.7       TIME AVG. FORCE        24.5    
 LARGEST RESIDUAL FORCE             0.559       AT NODE          7   DOF  2
   INSTANCE: T-BEAM-1-LIN-1-3                                                                
 LARGEST INCREMENT OF DISP.         5.503E-03   AT NODE          2   DOF  3
   INSTANCE: T-BEAM-1-LIN-1-3                                                                
 LARGEST CORRECTION TO DISP.        4.539E-05   AT NODE      17355   DOF  1
   INSTANCE: PLATE-1                                                                         
          FORCE     EQUILIBRIUM NOT ACHIEVED WITHIN TOLERANCE.

 AVERAGE MOMENT                     2.994E+03   TIME AVG. MOMENT      1.597E+03
 LARGEST RESIDUAL MOMENT           -0.199       AT NODE          7   DOF  4
   INSTANCE: T-BEAM-1                                                                        
 LARGEST INCREMENT OF ROTATION     -6.789E-06   AT NODE          3   DOF  5
   INSTANCE: T-BEAM-1                                                                        
 LARGEST CORRECTION TO ROTATION     3.796E-07   AT NODE          4   DOF  5
   INSTANCE: T-BEAM-1                                                                        
 ESTIMATE OF ROTATION CORRECTION    2.044E-09
 MOMENT    EQUILIB. ACCEPTED BASED ON SMALL RESIDUAL AND ESTIMATED CORRECTION
 
	SYMMETRIC DIRECT SPARSE SOLVER RUNNING ON
 	1 HOST:        1 MPI RANK  x 4 THREADS
 	NUMBER OF EQUATIONS:     72617
 	NUMBER OF RHS:           1
 	NUMBER OF FLOPS:         4.120e+10

     CHECK POINT   START OF SOLVER    

     CHECK POINT  END OF SOLVER       

       ELAPSED USER TIME (SEC)      =   2.4000    
       ELAPSED SYSTEM TIME (SEC)    =   0.0000    
       ELAPSED TOTAL CPU TIME (SEC) =   2.4000    
       ELAPSED WALLCLOCK TIME (SEC) =          0

               CONVERGENCE CHECKS FOR EQUILIBRIUM ITERATION     2

   MAX. PENETRATION ERROR 23.7493E-12  AT NODE PLATE-1.19812 OF CONTACT PAIR 
   (ASSEMBLY_CP-2-PLATE-1,ASSEMBLY_CP-2-PLANE-1)
   MAX. CONTACT FORCE ERROR 12.6337E-06  AT NODE PLATE-1.19812 OF CONTACT PAIR 
   (ASSEMBLY_CP-2-PLATE-1,ASSEMBLY_CP-2-PLANE-1)
          THE CONTACT CONSTRAINTS HAVE CONVERGED.

 AVERAGE FORCE                       45.7       TIME AVG. FORCE        24.5    
 LARGEST RESIDUAL FORCE             8.844E-04   AT NODE          7   DOF  2
   INSTANCE: T-BEAM-1-LIN-1-3                                                                
 LARGEST INCREMENT OF DISP.         5.503E-03   AT NODE          2   DOF  3
   INSTANCE: T-BEAM-1-LIN-1-3                                                                
 LARGEST CORRECTION TO DISP.       -4.094E-07   AT NODE      17039   DOF  3
   INSTANCE: PLATE-1                                                                         
          THE FORCE     EQUILIBRIUM EQUATIONS HAVE CONVERGED

 AVERAGE MOMENT                     2.994E+03   TIME AVG. MOMENT      1.597E+03
 LARGEST RESIDUAL MOMENT            1.542E-03   AT NODE          7   DOF  6
   INSTANCE: T-BEAM-1-LIN-1-3                                                                
 LARGEST INCREMENT OF ROTATION     -6.788E-06   AT NODE          3   DOF  5
   INSTANCE: T-BEAM-1                                                                        
 LARGEST CORRECTION TO ROTATION     1.526E-09   AT NODE          3   DOF  4
   INSTANCE: T-BEAM-1-LIN-3-1                                                                
          THE MOMENT    EQUILIBRIUM EQUATIONS HAVE CONVERGED
          TIME INCREMENT MAY NOW INCREASE TO    0.338    

 ITERATION SUMMARY FOR THE INCREMENT:   2 TOTAL ITERATIONS, OF WHICH
   0 ARE SEVERE DISCONTINUITY ITERATIONS AND  2 ARE EQUILIBRIUM ITERATIONS.

 TIME INCREMENT COMPLETED  0.225    ,  FRACTION OF STEP COMPLETED  0.575    
 STEP TIME COMPLETED       0.575    ,  TOTAL TIME COMPLETED         1.58    


  INCREMENT     5 STARTS. ATTEMPT NUMBER  1, TIME INCREMENT  0.338    
 
	SYMMETRIC DIRECT SPARSE SOLVER RUNNING ON
 	1 HOST:        1 MPI RANK  x 4 THREADS
 	NUMBER OF EQUATIONS:     72617
 	NUMBER OF RHS:           1
 	NUMBER OF FLOPS:         4.120e+10

     CHECK POINT   START OF SOLVER    

     CHECK POINT  END OF SOLVER       

       ELAPSED USER TIME (SEC)      =   2.6000    
       ELAPSED SYSTEM TIME (SEC)    =   0.0000    
       ELAPSED TOTAL CPU TIME (SEC) =   2.6000    
       ELAPSED WALLCLOCK TIME (SEC) =          0

               CONVERGENCE CHECKS FOR EQUILIBRIUM ITERATION     1

   MAX. PENETRATION ERROR 10.1354E-09  AT NODE PLATE-1.19812 OF CONTACT PAIR 
   (ASSEMBLY_CP-2-PLATE-1,ASSEMBLY_CP-2-PLANE-1)
   MAX. CONTACT FORCE ERROR 5.39174E-03 AT NODE PLATE-1.19812 OF CONTACT PAIR 
   (ASSEMBLY_CP-2-PLATE-1,ASSEMBLY_CP-2-PLANE-1)
          THE CONTACT CONSTRAINTS HAVE CONVERGED.

 AVERAGE FORCE                       71.3       TIME AVG. FORCE        33.8    
 LARGEST RESIDUAL FORCE              1.76       AT NODE          7   DOF  2
   INSTANCE: T-BEAM-1-LIN-1-3                                                                
 LARGEST INCREMENT OF DISP.         8.255E-03   AT NODE          2   DOF  3
   INSTANCE: T-BEAM-1-LIN-1-3                                                                
 LARGEST CORRECTION TO DISP.        9.195E-05   AT NODE      17355   DOF  1
   INSTANCE: PLATE-1                                                                         
          FORCE     EQUILIBRIUM NOT ACHIEVED WITHIN TOLERANCE.

 AVERAGE MOMENT                     4.731E+03   TIME AVG. MOMENT      2.224E+03
 LARGEST RESIDUAL MOMENT           -0.630       AT NODE          7   DOF  4
   INSTANCE: T-BEAM-1                                                                        
 LARGEST INCREMENT OF ROTATION     -9.428E-06   AT NODE          3   DOF  5
   INSTANCE: T-BEAM-1                                                                        
 LARGEST CORRECTION TO ROTATION     7.596E-07   AT NODE          4   DOF  5
   INSTANCE: T-BEAM-1                                                                        
 ESTIMATE OF ROTATION CORRECTION    6.189E-09
 MOMENT    EQUILIB. ACCEPTED BASED ON SMALL RESIDUAL AND ESTIMATED CORRECTION
 
	SYMMETRIC DIRECT SPARSE SOLVER RUNNING ON
 	1 HOST:        1 MPI RANK  x 4 THREADS
 	NUMBER OF EQUATIONS:     72617
 	NUMBER OF RHS:           1
 	NUMBER OF FLOPS:         4.120e+10

     CHECK POINT   START OF SOLVER    

     CHECK POINT  END OF SOLVER       

       ELAPSED USER TIME (SEC)      =   2.4000    
       ELAPSED SYSTEM TIME (SEC)    =   0.0000    
       ELAPSED TOTAL CPU TIME (SEC) =   2.4000    
       ELAPSED WALLCLOCK TIME (SEC) =          1

               CONVERGENCE CHECKS FOR EQUILIBRIUM ITERATION     2

   MAX. PENETRATION ERROR 113.224E-12   AT NODE PLATE-1.19812 OF CONTACT PAIR 
   (ASSEMBLY_CP-2-PLATE-1,ASSEMBLY_CP-2-PLANE-1)
   MAX. CONTACT FORCE ERROR 60.2322E-06  AT NODE PLATE-1.19812 OF CONTACT PAIR 
   (ASSEMBLY_CP-2-PLATE-1,ASSEMBLY_CP-2-PLANE-1)
          THE CONTACT CONSTRAINTS HAVE CONVERGED.

 AVERAGE FORCE                       71.3       TIME AVG. FORCE        33.8    
 LARGEST RESIDUAL FORCE             4.122E-03   AT NODE          7   DOF  2
   INSTANCE: T-BEAM-1-LIN-1-3                                                                
 LARGEST INCREMENT OF DISP.         8.255E-03   AT NODE          2   DOF  3
   INSTANCE: T-BEAM-1-LIN-1-3                                                                
 LARGEST CORRECTION TO DISP.       -1.276E-06   AT NODE      17039   DOF  3
   INSTANCE: PLATE-1                                                                         
          THE FORCE     EQUILIBRIUM EQUATIONS HAVE CONVERGED

 AVERAGE MOMENT                     4.731E+03   TIME AVG. MOMENT      2.224E+03
 LARGEST RESIDUAL MOMENT            7.253E-03   AT NODE          7   DOF  6
   INSTANCE: T-BEAM-1-LIN-1-3                                                                
 LARGEST INCREMENT OF ROTATION     -9.423E-06   AT NODE          3   DOF  5
   INSTANCE: T-BEAM-1                                                                        
 LARGEST CORRECTION TO ROTATION     4.703E-09   AT NODE          3   DOF  4
   INSTANCE: T-BEAM-1-LIN-3-1                                                                
          THE MOMENT    EQUILIBRIUM EQUATIONS HAVE CONVERGED

 ITERATION SUMMARY FOR THE INCREMENT:   2 TOTAL ITERATIONS, OF WHICH
   0 ARE SEVERE DISCONTINUITY ITERATIONS AND  2 ARE EQUILIBRIUM ITERATIONS.

 TIME INCREMENT COMPLETED  0.338    ,  FRACTION OF STEP COMPLETED  0.913    
 STEP TIME COMPLETED       0.913    ,  TOTAL TIME COMPLETED         1.91    


  INCREMENT     6 STARTS. ATTEMPT NUMBER  1, TIME INCREMENT  8.750E-02
 
	SYMMETRIC DIRECT SPARSE SOLVER RUNNING ON
 	1 HOST:        1 MPI RANK  x 4 THREADS
 	NUMBER OF EQUATIONS:     72617
 	NUMBER OF RHS:           1
 	NUMBER OF FLOPS:         4.120e+10

     CHECK POINT   START OF SOLVER    

     CHECK POINT  END OF SOLVER       

       ELAPSED USER TIME (SEC)      =   2.5000    
       ELAPSED SYSTEM TIME (SEC)    =   0.0000    
       ELAPSED TOTAL CPU TIME (SEC) =   2.5000    
       ELAPSED WALLCLOCK TIME (SEC) =          1

               CONVERGENCE CHECKS FOR EQUILIBRIUM ITERATION     1

   MAX. PENETRATION ERROR 1.94052E-09 AT NODE PLATE-1.19812 OF CONTACT PAIR 
   (ASSEMBLY_CP-2-PLATE-1,ASSEMBLY_CP-2-PLANE-1)
   MAX. CONTACT FORCE ERROR 1.03231E-03 AT NODE PLATE-1.19812 OF CONTACT PAIR 
   (ASSEMBLY_CP-2-PLATE-1,ASSEMBLY_CP-2-PLANE-1)
          THE CONTACT CONSTRAINTS HAVE CONVERGED.

 AVERAGE FORCE                       79.4       TIME AVG. FORCE        41.4    
 LARGEST RESIDUAL FORCE             0.350       AT NODE          7   DOF  2
   INSTANCE: T-BEAM-1-LIN-1-3                                                                
 LARGEST INCREMENT OF DISP.         2.140E-03   AT NODE          2   DOF  3
   INSTANCE: T-BEAM-1-LIN-1-3                                                                
 LARGEST CORRECTION TO DISP.        1.641E-05   AT NODE      17355   DOF  1
   INSTANCE: PLATE-1                                                                         
          FORCE     EQUILIBRIUM NOT ACHIEVED WITHIN TOLERANCE.

 AVERAGE MOMENT                     5.202E+03   TIME AVG. MOMENT      2.720E+03
 LARGEST RESIDUAL MOMENT           -0.121       AT NODE          7   DOF  4
   INSTANCE: T-BEAM-1                                                                        
 LARGEST INCREMENT OF ROTATION     -2.310E-06   AT NODE          3   DOF  5
   INSTANCE: T-BEAM-1                                                                        
 LARGEST CORRECTION TO ROTATION     1.342E-07   AT NODE          4   DOF  5
   INSTANCE: T-BEAM-1                                                                        
 ESTIMATE OF ROTATION CORRECTION    1.184E-09
 MOMENT    EQUILIB. ACCEPTED BASED ON SMALL RESIDUAL AND ESTIMATED CORRECTION
 
	SYMMETRIC DIRECT SPARSE SOLVER RUNNING ON
 	1 HOST:        1 MPI RANK  x 4 THREADS
 	NUMBER OF EQUATIONS:     72617
 	NUMBER OF RHS:           1
 	NUMBER OF FLOPS:         4.120e+10

     CHECK POINT   START OF SOLVER    

     CHECK POINT  END OF SOLVER       

       ELAPSED USER TIME (SEC)      =   2.5000    
       ELAPSED SYSTEM TIME (SEC)    =   0.0000    
       ELAPSED TOTAL CPU TIME (SEC) =   2.5000    
       ELAPSED WALLCLOCK TIME (SEC) =          1

               CONVERGENCE CHECKS FOR EQUILIBRIUM ITERATION     2

   MAX. PENETRATION ERROR 23.9557E-12  AT NODE PLATE-1.19812 OF CONTACT PAIR 
   (ASSEMBLY_CP-2-PLATE-1,ASSEMBLY_CP-2-PLANE-1)
   MAX. CONTACT FORCE ERROR 12.7438E-06  AT NODE PLATE-1.19812 OF CONTACT PAIR 
   (ASSEMBLY_CP-2-PLATE-1,ASSEMBLY_CP-2-PLANE-1)
          THE CONTACT CONSTRAINTS HAVE CONVERGED.

 AVERAGE FORCE                       79.4       TIME AVG. FORCE        41.4    
 LARGEST RESIDUAL FORCE             8.292E-04   AT NODE          7   DOF  2
   INSTANCE: T-BEAM-1-LIN-1-3                                                                
 LARGEST INCREMENT OF DISP.         2.140E-03   AT NODE          2   DOF  3
   INSTANCE: T-BEAM-1-LIN-1-3                                                                
 LARGEST CORRECTION TO DISP.       -2.491E-07   AT NODE      17039   DOF  3
   INSTANCE: PLATE-1                                                                         
          THE FORCE     EQUILIBRIUM EQUATIONS HAVE CONVERGED

 AVERAGE MOMENT                     5.202E+03   TIME AVG. MOMENT      2.720E+03
 LARGEST RESIDUAL MOMENT            1.537E-03   AT NODE          7   DOF  6
   INSTANCE: T-BEAM-1-LIN-1-3                                                                
 LARGEST INCREMENT OF ROTATION     -2.309E-06   AT NODE          3   DOF  5
   INSTANCE: T-BEAM-1                                                                        
 LARGEST CORRECTION TO ROTATION     9.055E-10   AT NODE          3   DOF  4
   INSTANCE: T-BEAM-1-LIN-3-1                                                                
          THE MOMENT    EQUILIBRIUM EQUATIONS HAVE CONVERGED

 ITERATION SUMMARY FOR THE INCREMENT:   2 TOTAL ITERATIONS, OF WHICH
   0 ARE SEVERE DISCONTINUITY ITERATIONS AND  2 ARE EQUILIBRIUM ITERATIONS.

 TIME INCREMENT COMPLETED  8.750E-02,  FRACTION OF STEP COMPLETED   1.00    
 STEP TIME COMPLETED        1.00    ,  TOTAL TIME COMPLETED         2.00    
1

   Abaqus 2022                                  Date 12-7ÔÂ-2024   Time 09:40:13
   For use by Supplied by Team-SolidSQUAD under license from Dassault Systemes or its subsidiary.

                                                                                 
                                                                                 
 STEP    3     INCREMENT     1     STEP TIME    0.00    


                        S T E P       3     S T A T I C   A N A L Y S I S


                                                                                          

     AUTOMATIC TIME CONTROL WITH -
          A SUGGESTED INITIAL TIME INCREMENT OF                0.100    
          AND A TOTAL TIME PERIOD OF                            1.00    
          THE MINIMUM TIME INCREMENT ALLOWED IS                1.000E-05
          THE MAXIMUM TIME INCREMENT ALLOWED IS                 1.00    

     LINEAR EQUATION SOLVER TYPE         DIRECT SPARSE

 CONVERGENCE TOLERANCE PARAMETERS FOR FORCE    
     CRITERION FOR RESIDUAL FORCE     FOR A NONLINEAR PROBLEM          5.000E-03
     CRITERION FOR DISP.    CORRECTION IN A NONLINEAR PROBLEM          1.000E-02
     INIT. VALUE OF TIME AVG. FORCE     IS TIME AVG. FORCE     IN PREVIOUS STEP
     AVERAGE FORCE     IS TIME AVERAGE FORCE    
     ALTERNATE CRIT. FOR RESIDUAL FORCE     FOR A NONLINEAR PROBLEM    2.000E-02
     CRITERION FOR ZERO FORCE     RELATIVE TO TIME AVRG. FORCE         1.000E-05
     CRITERION FOR RESIDUAL FORCE     WHEN THERE IS ZERO FLUX          1.000E-05
     CRITERION FOR DISP.    CORRECTION WHEN THERE IS ZERO FLUX         1.000E-03
     CRITERION FOR RESIDUAL FORCE     FOR A LINEAR INCREMENT           1.000E-08
     FIELD CONVERSION RATIO                                             1.00    
     CRITERION FOR ZERO FORCE     REL. TO TIME AVRG. MAX. FORCE        1.000E-05
     CRITERION FOR ZERO DISP.    RELATIVE TO CHARACTERISTIC LENGTH     1.000E-08

 CONVERGENCE TOLERANCE PARAMETERS FOR MOMENT   
     CRITERION FOR RESIDUAL MOMENT    FOR A NONLINEAR PROBLEM          5.000E-03
     CRITERION FOR ROTATION CORRECTION IN A NONLINEAR PROBLEM          1.000E-02
     INIT. VALUE OF TIME AVG. MOMENT    IS TIME AVG. MOMENT    IN PREVIOUS STEP
     AVERAGE MOMENT    IS TIME AVERAGE MOMENT   
     ALTERNATE CRIT. FOR RESIDUAL MOMENT    FOR A NONLINEAR PROBLEM    2.000E-02
     CRITERION FOR ZERO MOMENT    RELATIVE TO TIME AVRG. MOMENT        1.000E-05
     CRITERION FOR RESIDUAL MOMENT    WHEN THERE IS ZERO FLUX          1.000E-05
     CRITERION FOR ROTATION CORRECTION WHEN THERE IS ZERO FLUX         1.000E-03
     CRITERION FOR RESIDUAL MOMENT    FOR A LINEAR INCREMENT           1.000E-08
     FIELD CONVERSION RATIO                                             1.00    
     CRITERION FOR ZERO MOMENT    REL. TO TIME AVRG. MAX. MOMENT       1.000E-05

     VOLUMETRIC STRAIN COMPATIBILITY TOLERANCE FOR HYBRID SOLIDS       1.000E-05
     AXIAL STRAIN COMPATIBILITY TOLERANCE FOR HYBRID BEAMS             1.000E-05
     TRANS. SHEAR STRAIN COMPATIBILITY TOLERANCE FOR HYBRID BEAMS      1.000E-05
     SOFT CONTACT CONSTRAINT COMPATIBILITY TOLERANCE FOR P>P0          5.000E-03
     SOFT CONTACT CONSTRAINT COMPATIBILITY TOLERANCE FOR P=0.0         0.100    
     CONTACT FORCE ERROR TOLERANCE FOR CONVERT SDI=YES                 1.00    
     DISPLACEMENT COMPATIBILITY TOLERANCE FOR DCOUP ELEMENTS           1.000E-05
     ROTATION COMPATIBILITY TOLERANCE FOR DCOUP ELEMENTS               1.000E-05

 EQUILIBRIUM WILL BE CHECKED FOR SEVERE DISCONTINUITY ITERATIONS

 TIME INCREMENTATION CONTROL PARAMETERS:
     FIRST EQUILIBRIUM ITERATION FOR CONSECUTIVE DIVERGENCE CHECK              4
     EQUILIBRIUM ITERATION AT WHICH LOG. CONVERGENCE RATE CHECK BEGINS         8
     EQUILIBRIUM ITERATION AFTER WHICH ALTERNATE RESIDUAL IS USED              9
     MAXIMUM EQUILIBRIUM ITERATIONS ALLOWED                                   16
     EQUILIBRIUM ITERATION COUNT FOR CUT-BACK IN NEXT INCREMENT               10
     MAXIMUM EQUILIB. ITERS IN TWO INCREMENTS FOR TIME INCREMENT INCREASE      4
     MAXIMUM ITERATIONS FOR SEVERE DISCONTINUITIES                            50
     MAXIMUM ATTEMPTS ALLOWED IN AN INCREMENT                                  5
     MAXIMUM DISCON. ITERS IN TWO INCREMENTS FOR TIME INCREMENT INCREASE      50
     MAXIMUM CONTACT AUGMENTATIONS FOR *SURFACE BEHAVIOR,AUGMENTED LAGRANGE   50
     CUT-BACK FACTOR AFTER DIVERGENCE                                 0.2500    
     CUT-BACK FACTOR FOR TOO SLOW CONVERGENCE                         0.5000    
     CUT-BACK FACTOR AFTER TOO MANY EQUILIBRIUM ITERATIONS            0.7500    
     CUT-BACK FACTOR AFTER TOO MANY SEVERE DISCONTINUITY ITERATIONS   0.2500    
     CUT-BACK FACTOR AFTER PROBLEMS IN ELEMENT ASSEMBLY               0.2500    
     INCREASE FACTOR AFTER TWO INCREMENTS THAT CONVERGE QUICKLY        1.500    
     MAX. TIME INCREMENT INCREASE FACTOR ALLOWED                       1.500    
     MAX. TIME INCREMENT INCREASE FACTOR ALLOWED (DYNAMICS)            1.250    
     MAX. TIME INCREMENT INCREASE FACTOR ALLOWED (DIFFUSION)           2.000    
     MINIMUM TIME INCREMENT RATIO FOR EXTRAPOLATION TO OCCUR          0.1000    
     MAX. RATIO OF TIME INCREMENT TO STABILITY LIMIT                   1.000    
     FRACTION OF STABILITY LIMIT FOR NEW TIME INCREMENT               0.9500    
     TIME INCREMENT INCREASE FACTOR BEFORE A TIME POINT                1.000    

 CONTACT CONTROLS APPLIED TO ALL CONTACT PAIRS:
     GLOBAL STABILIZATION CONTROL IS NOT USED
     RELATIVE PENETRATION TOLERANCE FOR AUGMENTED LAGRANGE CONTACT:
          FINITE-SLIDING SURFACE-TO-SURFACE                            5.000E-02
          OTHERWISE                                                    1.000E-03

          PRINT OF INCREMENT NUMBER, TIME, ETC., EVERY    1  INCREMENTS

     THE MAXIMUM NUMBER OF INCREMENTS IN THIS STEP IS                   10000

     LINEAR EXTRAPOLATION WILL BE USED

     CHARACTERISTIC ELEMENT LENGTH      6.88    

     DETAILS REGARDING ACTUAL SOLUTION WAVEFRONT REQUESTED

     DETAILED OUTPUT OF DIAGNOSTICS TO DATABASE REQUESTED

     PRINT OF INCREMENT NUMBER, TIME, ETC., TO THE MESSAGE FILE EVERY     1  INCREMENTS

     ELEMENT OPERATIONS WILL BE CARRIED OUT IN PARALLEL USING   4 THREADS ON 1 DOMAIN

     COLLECTING STEP CONSTRAINT INFORMATION FOR OVERCONSTRAINT CHECKS


  INCREMENT     1 STARTS. ATTEMPT NUMBER  1, TIME INCREMENT  0.100    
 
     INITIAL ELEMENT LOAD BALANCE
            DOMAIN    1     THREAD    NUMBER OF ELEMENTS
                              1            8632
                              2            8464
                              3            8656
                              4            8319
 
	SYMMETRIC DIRECT SPARSE SOLVER RUNNING ON
 	1 HOST:        1 MPI RANK  x 4 THREADS
 	NUMBER OF EQUATIONS:     72617
 	NUMBER OF RHS:           1
 	NUMBER OF FLOPS:         4.120e+10

     CHECK POINT   START OF SOLVER    

     CHECK POINT  END OF SOLVER       

       ELAPSED USER TIME (SEC)      =   2.4000    
       ELAPSED SYSTEM TIME (SEC)    =  0.10000    
[...]
 LARGEST RESIDUAL FORCE            -1.257E+04   AT NODE          7   DOF  3
   INSTANCE: T-BEAM-1-LIN-2-1                                                                
 LARGEST INCREMENT OF DISP.         7.969E-02   AT NODE       9674   DOF  3
   INSTANCE: PLATE-1                                                                         
 LARGEST CORRECTION TO DISP.        1.006E-02   AT NODE      16977   DOF  3
   INSTANCE: PLATE-1                                                                         
          FORCE     EQUILIBRIUM NOT ACHIEVED WITHIN TOLERANCE.

 AVERAGE MOMENT                     6.867E+04   TIME AVG. MOMENT      3.371E+04
 LARGEST RESIDUAL MOMENT            5.956E+04   AT NODE          7   DOF  4
   INSTANCE: T-BEAM-1-LIN-2-1                                                                
 LARGEST INCREMENT OF ROTATION      5.080E-04   AT NODE          1   DOF  4
   INSTANCE: {assembly node}                                                                 
 LARGEST CORRECTION TO ROTATION    -9.768E-05   AT NODE          1   DOF  4
   INSTANCE: T-BEAM-1-LIN-2-1                                                                
          MOMENT    EQUILIBRIUM NOT ACHIEVED WITHIN TOLERANCE.
 
	SYMMETRIC DIRECT SPARSE SOLVER RUNNING ON
 	1 HOST:        1 MPI RANK  x 4 THREADS
 	NUMBER OF EQUATIONS:     72617
 	NUMBER OF RHS:           1
 	NUMBER OF FLOPS:         4.153e+10

     CHECK POINT   START OF SOLVER    

     CHECK POINT  END OF SOLVER       

       ELAPSED USER TIME (SEC)      =   2.3000    
       ELAPSED SYSTEM TIME (SEC)    =   0.0000    
       ELAPSED TOTAL CPU TIME (SEC) =   2.3000    
       ELAPSED WALLCLOCK TIME (SEC) =          1

                  111 SEVERE DISCONTINUITIES OCCURRED DURING THIS ITERATION.
                    1 POINTS CHANGED FROM OPEN TO CLOSED
                  110 POINTS CHANGED FROM CLOSED TO OPEN

               CONVERGENCE CHECKS FOR SEVERE DISCONTINUITY ITERATION     2

   MAX. PENETRATION ERROR 1.09000E-06 AT NODE PLATE-1.20020 OF CONTACT PAIR 
   (ASSEMBLY_CP-2-PLATE-1,ASSEMBLY_CP-2-PLANE-1)
   MAX. CONTACT FORCE ERROR -735.521       AT NODE PLATE-1.16976 OF CONTACT 
   PAIR (ASSEMBLY_CP-2-PLATE-1,ASSEMBLY_CP-2-PLANE-1)
          THE ESTIMATED CONTACT FORCE ERROR IS OUTSIDE OF CONVERGENCE TOLERANCES.

 AVERAGE FORCE                       162.       TIME AVG. FORCE        112.    
 LARGEST RESIDUAL FORCE            -1.498E+03   AT NODE          7   DOF  3
   INSTANCE: T-BEAM-1-LIN-2-1                                                                
 LARGEST INCREMENT OF DISP.         8.376E-02   AT NODE       9674   DOF  3
   INSTANCE: PLATE-1                                                                         
 LARGEST CORRECTION TO DISP.        1.719E-02   AT NODE      17317   DOF  3
   INSTANCE: PLATE-1                                                                         
          FORCE     EQUILIBRIUM NOT ACHIEVED WITHIN TOLERANCE.

 AVERAGE MOMENT                     6.781E+04   TIME AVG. MOMENT      3.353E+04
 LARGEST RESIDUAL MOMENT            8.337E+03   AT NODE          7   DOF  5
   INSTANCE: T-BEAM-1-LIN-2-1                                                                
 LARGEST INCREMENT OF ROTATION      5.349E-04   AT NODE          1   DOF  4
   INSTANCE: {assembly node}                                                                 
 LARGEST CORRECTION TO ROTATION    -1.254E-04   AT NODE          1   DOF  4
   INSTANCE: T-BEAM-1-LIN-2-1                                                                
          MOMENT    EQUILIBRIUM NOT ACHIEVED WITHIN TOLERANCE.
 
	SYMMETRIC DIRECT SPARSE SOLVER RUNNING ON
 	1 HOST:        1 MPI RANK  x 4 THREADS
 	NUMBER OF EQUATIONS:     72617
 	NUMBER OF RHS:           1
 	NUMBER OF FLOPS:         4.133e+10

     CHECK POINT   START OF SOLVER    

     CHECK POINT  END OF SOLVER       

       ELAPSED USER TIME (SEC)      =   2.3000    
       ELAPSED SYSTEM TIME (SEC)    =   0.0000    
       ELAPSED TOTAL CPU TIME (SEC) =   2.3000    
       ELAPSED WALLCLOCK TIME (SEC) =          0

                   30 SEVERE DISCONTINUITIES OCCURRED DURING THIS ITERATION.
                    2 POINTS CHANGED FROM OPEN TO CLOSED
                   28 POINTS CHANGED FROM CLOSED TO OPEN

               CONVERGENCE CHECKS FOR SEVERE DISCONTINUITY ITERATION     3

   MAX. PENETRATION ERROR 2.76013E-06 AT NODE PLATE-1.19517 OF CONTACT PAIR 
   (ASSEMBLY_CP-2-PLATE-1,ASSEMBLY_CP-2-PLANE-1)
   MAX. CONTACT FORCE ERROR -103.626       AT NODE PLATE-1.17165 OF CONTACT 
   PAIR (ASSEMBLY_CP-2-PLATE-1,ASSEMBLY_CP-2-PLANE-1)
          THE ESTIMATED CONTACT FORCE ERROR IS OUTSIDE OF CONVERGENCE TOLERANCES.

 AVERAGE FORCE                       162.       TIME AVG. FORCE        112.    
 LARGEST RESIDUAL FORCE              58.2       AT NODE      17165   DOF  3
   INSTANCE: PLATE-1                                                                         
 LARGEST INCREMENT OF DISP.         8.407E-02   AT NODE       9674   DOF  3
   INSTANCE: PLATE-1                                                                         
 LARGEST CORRECTION TO DISP.        3.379E-03   AT NODE      17322   DOF  3
   INSTANCE: PLATE-1                                                                         
          FORCE     EQUILIBRIUM NOT ACHIEVED WITHIN TOLERANCE.

 AVERAGE MOMENT                     6.804E+04   TIME AVG. MOMENT      3.358E+04
 LARGEST RESIDUAL MOMENT            -83.6       AT NODE          7   DOF  6
   INSTANCE: T-BEAM-1-LIN-2-1                                                                
 LARGEST INCREMENT OF ROTATION      5.368E-04   AT NODE          1   DOF  4
   INSTANCE: {assembly node}                                                                 
 LARGEST CORRECTION TO ROTATION    -7.581E-06   AT NODE          1   DOF  4
   INSTANCE: T-BEAM-1-LIN-2-1                                                                
 ESTIMATE OF ROTATION CORRECTION    7.597E-08
 MOMENT    EQUILIB. ACCEPTED BASED ON SMALL RESIDUAL AND ESTIMATED CORRECTION
 
	SYMMETRIC DIRECT SPARSE SOLVER RUNNING ON
 	1 HOST:        1 MPI RANK  x 4 THREADS
 	NUMBER OF EQUATIONS:     72617
 	NUMBER OF RHS:           1
 	NUMBER OF FLOPS:         4.126e+10

     CHECK POINT   START OF SOLVER    

     CHECK POINT  END OF SOLVER       

       ELAPSED USER TIME (SEC)      =   2.5000    
       ELAPSED SYSTEM TIME (SEC)    =   0.0000    
       ELAPSED TOTAL CPU TIME (SEC) =   2.5000    
       ELAPSED WALLCLOCK TIME (SEC) =          1

                    7 SEVERE DISCONTINUITIES OCCURRED DURING THIS ITERATION.
                    7 POINTS CHANGED FROM CLOSED TO OPEN

               CONVERGENCE CHECKS FOR SEVERE DISCONTINUITY ITERATION     4

   MAX. PENETRATION ERROR -2.63418E-09 AT NODE PLATE-1.17293 OF CONTACT PAIR 
   (ASSEMBLY_CP-2-PLATE-1,ASSEMBLY_CP-2-PLANE-1)
   MAX. CONTACT FORCE ERROR -20.8325      AT NODE PLATE-1.19030 OF CONTACT PAIR 
   (ASSEMBLY_CP-2-PLATE-1,ASSEMBLY_CP-2-PLANE-1)
          THE CONTACT CONSTRAINT ERRORS ARE WITHIN THE TOLERANCES.

 AVERAGE FORCE                       162.       TIME AVG. FORCE        112.    
 LARGEST RESIDUAL FORCE              13.0       AT NODE      19030   DOF  3
   INSTANCE: PLATE-1                                                                         
 LARGEST INCREMENT OF DISP.         8.408E-02   AT NODE       9674   DOF  3
   INSTANCE: PLATE-1                                                                         
 LARGEST CORRECTION TO DISP.        2.885E-04   AT NODE      17165   DOF  3
   INSTANCE: PLATE-1                                                                         
          FORCE     EQUILIBRIUM NOT ACHIEVED WITHIN TOLERANCE.

 AVERAGE MOMENT                     6.818E+04   TIME AVG. MOMENT      3.361E+04
 LARGEST RESIDUAL MOMENT            -4.26       AT NODE          7   DOF  6
   INSTANCE: T-BEAM-1-LIN-1-2                                                                
 LARGEST INCREMENT OF ROTATION      5.368E-04   AT NODE          1   DOF  4
   INSTANCE: {assembly node}                                                                 
 LARGEST CORRECTION TO ROTATION    -2.819E-07   AT NODE          9   DOF  5
   INSTANCE: PLATE-1                                                                         
          THE MOMENT    EQUILIBRIUM EQUATIONS HAVE CONVERGED
 
	SYMMETRIC DIRECT SPARSE SOLVER RUNNING ON
 	1 HOST:        1 MPI RANK  x 4 THREADS
 	NUMBER OF EQUATIONS:     72617
 	NUMBER OF RHS:           1
 	NUMBER OF FLOPS:         4.125e+10

     CHECK POINT   START OF SOLVER    

     CHECK POINT  END OF SOLVER       

       ELAPSED USER TIME (SEC)      =   2.5000    
       ELAPSED SYSTEM TIME (SEC)    =   0.0000    
       ELAPSED TOTAL CPU TIME (SEC) =   2.5000    
       ELAPSED WALLCLOCK TIME (SEC) =          0

               CONVERGENCE CHECKS FOR EQUILIBRIUM ITERATION     1

   MAX. PENETRATION ERROR -244.658E-12   AT NODE PLATE-1.17293 OF CONTACT PAIR 
   (ASSEMBLY_CP-2-PLATE-1,ASSEMBLY_CP-2-PLANE-1)
   MAX. CONTACT FORCE ERROR -115.061E-06   AT NODE PLATE-1.17293 OF CONTACT 
   PAIR (ASSEMBLY_CP-2-PLATE-1,ASSEMBLY_CP-2-PLANE-1)
          THE CONTACT CONSTRAINTS HAVE CONVERGED.

 AVERAGE FORCE                       162.       TIME AVG. FORCE        112.    
 LARGEST RESIDUAL FORCE            -2.089E-02   AT NODE      18962   DOF  2
   INSTANCE: PLATE-1                                                                         
 LARGEST INCREMENT OF DISP.         8.408E-02   AT NODE       9674   DOF  3
   INSTANCE: PLATE-1                                                                         
 LARGEST CORRECTION TO DISP.        8.139E-05   AT NODE      18946   DOF  3
   INSTANCE: PLATE-1                                                                         
          THE FORCE     EQUILIBRIUM EQUATIONS HAVE CONVERGED

 AVERAGE MOMENT                     6.818E+04   TIME AVG. MOMENT      3.361E+04
 LARGEST RESIDUAL MOMENT            0.230       AT NODE          7   DOF  6
   INSTANCE: T-BEAM-1-LIN-1-2                                                                
 LARGEST INCREMENT OF ROTATION      5.368E-04   AT NODE          1   DOF  4
   INSTANCE: {assembly node}                                                                 
 LARGEST CORRECTION TO ROTATION     1.313E-08   AT NODE          3   DOF  4
   INSTANCE: T-BEAM-1-LIN-1-2                                                                
          THE MOMENT    EQUILIBRIUM EQUATIONS HAVE CONVERGED

 ITERATION SUMMARY FOR THE INCREMENT:   5 TOTAL ITERATIONS, OF WHICH
   4 ARE SEVERE DISCONTINUITY ITERATIONS AND  1 ARE EQUILIBRIUM ITERATIONS.

 TIME INCREMENT COMPLETED  0.338    ,  FRACTION OF STEP COMPLETED  0.913    
 STEP TIME COMPLETED       0.913    ,  TOTAL TIME COMPLETED         3.91    


  INCREMENT     6 STARTS. ATTEMPT NUMBER  1, TIME INCREMENT  8.750E-02

                   11 SEVERE DISCONTINUITIES OCCURRED DURING INCREMENT ATTEMPT INITIALIZATION.
                   11 POINTS CHANGED TO SLIPPING WITH NEGATIVE CPRESS
 
	SYMMETRIC DIRECT SPARSE SOLVER RUNNING ON
 	1 HOST:        1 MPI RANK  x 4 THREADS
 	NUMBER OF EQUATIONS:     72617
 	NUMBER OF RHS:           1
 	NUMBER OF FLOPS:         4.125e+10

     CHECK POINT   START OF SOLVER    

     CHECK POINT  END OF SOLVER       

       ELAPSED USER TIME (SEC)      =   2.7000    
       ELAPSED SYSTEM TIME (SEC)    =  0.10000    
       ELAPSED TOTAL CPU TIME (SEC) =   2.8000    
       ELAPSED WALLCLOCK TIME (SEC) =          1

                   40 SEVERE DISCONTINUITIES OCCURRED DURING THIS ITERATION.
                   27 POINTS CHANGED FROM OPEN TO CLOSED
                   13 POINTS CHANGED FROM CLOSED TO OPEN

               CONVERGENCE CHECKS FOR SEVERE DISCONTINUITY ITERATION     1

   MAX. PENETRATION ERROR 88.0643E-06  AT NODE PLATE-1.19751 OF CONTACT PAIR 
   (ASSEMBLY_CP-2-PLATE-1,ASSEMBLY_CP-2-PLANE-1)
   MAX. CONTACT FORCE ERROR -437.388       AT NODE PLATE-1.17291 OF CONTACT 
   PAIR (ASSEMBLY_CP-2-PLATE-1,ASSEMBLY_CP-2-PLANE-1)
          THE ESTIMATED CONTACT FORCE ERROR IS OUTSIDE OF CONVERGENCE TOLERANCES.

 AVERAGE FORCE                       173.       TIME AVG. FORCE        122.    
 LARGEST RESIDUAL FORCE            -1.015E+03   AT NODE          7   DOF  3
   INSTANCE: T-BEAM-1                                                                        
 LARGEST INCREMENT OF DISP.         2.254E-02   AT NODE       9674   DOF  3
   INSTANCE: PLATE-1                                                                         
 LARGEST CORRECTION TO DISP.        2.040E-03   AT NODE      17161   DOF  3
   INSTANCE: PLATE-1                                                                         
          FORCE     EQUILIBRIUM NOT ACHIEVED WITHIN TOLERANCE.

 AVERAGE MOMENT                     7.684E+04   TIME AVG. MOMENT      4.081E+04
 LARGEST RESIDUAL MOMENT            8.600E+03   AT NODE          7   DOF  5
   INSTANCE: T-BEAM-1                                                                        
 LARGEST INCREMENT OF ROTATION     -1.508E-04   AT NODE         20   DOF  4
   INSTANCE: PLATE-1                                                                         
 LARGEST CORRECTION TO ROTATION    -2.254E-05   AT NODE          9   DOF  5
   INSTANCE: PLATE-1                                                                         
          MOMENT    EQUILIBRIUM NOT ACHIEVED WITHIN TOLERANCE.
 
	SYMMETRIC DIRECT SPARSE SOLVER RUNNING ON
 	1 HOST:        1 MPI RANK  x 4 THREADS
 	NUMBER OF EQUATIONS:     72617
 	NUMBER OF RHS:           1
 	NUMBER OF FLOPS:         4.127e+10

     CHECK POINT   START OF SOLVER    

     CHECK POINT  END OF SOLVER       

       ELAPSED USER TIME (SEC)      =   2.6000    
       ELAPSED SYSTEM TIME (SEC)    =   0.0000    
       ELAPSED TOTAL CPU TIME (SEC) =   2.6000    
       ELAPSED WALLCLOCK TIME (SEC) =          0

                    8 SEVERE DISCONTINUITIES OCCURRED DURING THIS ITERATION.
                    8 POINTS CHANGED FROM CLOSED TO OPEN

               CONVERGENCE CHECKS FOR SEVERE DISCONTINUITY ITERATION     2

   MAX. PENETRATION ERROR 38.2061E-09  AT NODE PLATE-1.17343 OF CONTACT PAIR 
   (ASSEMBLY_CP-2-PLATE-1,ASSEMBLY_CP-2-PLANE-1)
   MAX. CONTACT FORCE ERROR -18.5694      AT NODE PLATE-1.19739 OF CONTACT PAIR 
   (ASSEMBLY_CP-2-PLATE-1,ASSEMBLY_CP-2-PLANE-1)
          THE CONTACT CONSTRAINT ERRORS ARE WITHIN THE TOLERANCES.

 AVERAGE FORCE                       173.       TIME AVG. FORCE        122.    
 LARGEST RESIDUAL FORCE              34.5       AT NODE          7   DOF  2
   INSTANCE: T-BEAM-1                                                                        
 LARGEST INCREMENT OF DISP.         2.268E-02   AT NODE       9674   DOF  3
   INSTANCE: PLATE-1                                                                         
 LARGEST CORRECTION TO DISP.        1.996E-03   AT NODE      17291   DOF  3
   INSTANCE: PLATE-1                                                                         
          FORCE     EQUILIBRIUM NOT ACHIEVED WITHIN TOLERANCE.

 AVERAGE MOMENT                     7.709E+04   TIME AVG. MOMENT      4.085E+04
 LARGEST RESIDUAL MOMENT            -39.7       AT NODE          7   DOF  6
   INSTANCE: T-BEAM-1-LIN-1-2                                                                
 LARGEST INCREMENT OF ROTATION     -1.518E-04   AT NODE         20   DOF  4
   INSTANCE: PLATE-1                                                                         
 LARGEST CORRECTION TO ROTATION    -5.838E-06   AT NODE         23   DOF  4
   INSTANCE: PLATE-1                                                                         
 ESTIMATE OF ROTATION CORRECTION    2.800E-08
 MOMENT    EQUILIB. ACCEPTED BASED ON SMALL RESIDUAL AND ESTIMATED CORRECTION
 
	SYMMETRIC DIRECT SPARSE SOLVER RUNNING ON
 	1 HOST:        1 MPI RANK  x 4 THREADS
 	NUMBER OF EQUATIONS:     72617
 	NUMBER OF RHS:           1
 	NUMBER OF FLOPS:         4.126e+10

     CHECK POINT   START OF SOLVER    

     CHECK POINT  END OF SOLVER       

       ELAPSED USER TIME (SEC)      =   2.5000    
       ELAPSED SYSTEM TIME (SEC)    =   0.0000    
       ELAPSED TOTAL CPU TIME (SEC) =   2.5000    
       ELAPSED WALLCLOCK TIME (SEC) =          1

                    1 SEVERE DISCONTINUITIES OCCURRED DURING THIS ITERATION.
                    1 POINTS CHANGED FROM CLOSED TO OPEN

               CONVERGENCE CHECKS FOR SEVERE DISCONTINUITY ITERATION     3

   MAX. PENETRATION ERROR -23.3152E-09  AT NODE PLATE-1.17344 OF CONTACT PAIR 
   (ASSEMBLY_CP-2-PLATE-1,ASSEMBLY_CP-2-PLANE-1)
   MAX. CONTACT FORCE ERROR -192.913E-03   AT NODE PLATE-1.17440 OF CONTACT 
   PAIR (ASSEMBLY_CP-2-PLATE-1,ASSEMBLY_CP-2-PLANE-1)
          THE CONTACT CONSTRAINT ERRORS ARE WITHIN THE TOLERANCES.

 AVERAGE FORCE                       173.       TIME AVG. FORCE        122.    
 LARGEST RESIDUAL FORCE            -0.240       AT NODE          7   DOF  2
   INSTANCE: T-BEAM-1                                                                        
 LARGEST INCREMENT OF DISP.         2.268E-02   AT NODE       9674   DOF  3
   INSTANCE: PLATE-1                                                                         
 LARGEST CORRECTION TO DISP.       -8.106E-05   AT NODE      17344   DOF  2
   INSTANCE: PLATE-1                                                                         
          THE FORCE     EQUILIBRIUM EQUATIONS HAVE CONVERGED

 AVERAGE MOMENT                     7.685E+04   TIME AVG. MOMENT      4.081E+04
 LARGEST RESIDUAL MOMENT             1.33       AT NODE          7   DOF  6
   INSTANCE: T-BEAM-1                                                                        
 LARGEST INCREMENT OF ROTATION     -1.519E-04   AT NODE         20   DOF  4
   INSTANCE: PLATE-1                                                                         
 LARGEST CORRECTION TO ROTATION     1.540E-07   AT NODE          4   DOF  4
   INSTANCE: T-BEAM-1                                                                        
          THE MOMENT    EQUILIBRIUM EQUATIONS HAVE CONVERGED

 ITERATION SUMMARY FOR THE INCREMENT:   3 TOTAL ITERATIONS, OF WHICH
   3 ARE SEVERE DISCONTINUITY ITERATIONS AND  0 ARE EQUILIBRIUM ITERATIONS.

 TIME INCREMENT COMPLETED  8.750E-02,  FRACTION OF STEP COMPLETED   1.00    
 STEP TIME COMPLETED        1.00    ,  TOTAL TIME COMPLETED         4.00    


          THE ANALYSIS HAS BEEN COMPLETED



     ANALYSIS SUMMARY:
     TOTAL OF         24  INCREMENTS
                       0  CUTBACKS IN AUTOMATIC INCREMENTATION
                      60  ITERATIONS INCLUDING CONTACT ITERATIONS IF PRESENT
                      60  PASSES THROUGH THE EQUATION SOLVER OF WHICH 
                      60  INVOLVE MATRIX DECOMPOSITION, INCLUDING
                       0  DECOMPOSITION(S) OF THE MASS MATRIX
                       1  REORDERING OF EQUATIONS TO MINIMIZE WAVEFRONT
                       0  ADDITIONAL RESIDUAL EVALUATIONS FOR LINE SEARCHES
                       0  ADDITIONAL OPERATOR EVALUATIONS FOR LINE SEARCHES
                    3126  WARNING MESSAGES DURING USER INPUT PROCESSING
                       0  WARNING MESSAGES DURING ANALYSIS
                       0  ANALYSIS WARNINGS ARE NUMERICAL PROBLEM MESSAGES
                       0  ANALYSIS WARNINGS ARE NEGATIVE EIGENVALUE MESSAGES
                       0  ERROR MESSAGES



     JOB TIME SUMMARY
       USER TIME (SEC)      =   309.40    
       SYSTEM TIME (SEC)    =   6.4000    
       TOTAL CPU TIME (SEC) =   315.80    
       WALLCLOCK TIME (SEC) =        105
